*Heading
 scratch/test_quads/opt_iter_001_mesh.inp
*NODE
1, 0.2589, 0, 4.165971332283e-18
2, -0.0002743444748562, 0, 0.001460512500794
3, -0.0002743444748562, 0.95, 0.001460512500794
4, 0.2589, 0.95, 4.165971332283e-18
5, -0.0002743444748562, 0, 0.001460512500794
6, 0.2589, 0, 4.165971332283e-18
7, 0.2589, 0.95, 4.165971332283e-18
8, -0.0002743444748562, 0.95, 0.001460512500794
9, 0.09709000000001, 0, 0.03585795002859
10, 0.09709000000002, 0, 0.005381739972119
11, 0.09709, 0.019, 0.03585795002859
12, 0.09709, 0.019, 0.005381739972118
13, 0.038855, 0.019, 0.0271917625742
14, 0.038855, 0.019, -0.001276706657726
15, 0.168245, 0.019, 0.02793608053413
16, 0.168245, 0.019, 0.006518852882011
17, 0.09709, 0.145255, 0.03585795002859
18, 0.09709, 0.145255, 0.005381739972118
19, 0.038855, 0.145255, 0.0271917625742
20, 0.038855, 0.145255, -0.001276706657726
** ... 1107 like lines cut
******* E L E M E N T S *************
*ELEMENT, type=S4, ELSET=Surface1
1, 67, 68, 500, 486
2, 717, 733, 718, 707
3, 725, 731, 737, 726
4, 486, 500, 511, 518
5, 557, 471, 556, 555
6, 468, 503, 522, 499
7, 109, 108, 482, 494
8, 481, 592, 610, 629
9, 648, 671, 682, 656
10, 722, 745, 732, 715
11, 684, 685, 670, 675
12, 732, 745, 727, 743
13, 656, 682, 690, 664
14, 522, 515, 507, 499
15, 679, 674, 480, 477
16, 475, 474, 524, 517
17, 691, 700, 711, 702
18, 560, 564, 467, 535
19, 725, 726, 720, 721
20, 702, 711, 725, 721
** ... 306 like lines cut
*ELEMENT, type=S3, ELSET=Surface2
327, 994, 159, 160
328, 159, 994, 158
329, 964, 174, 175
330, 174, 964, 173
*ELEMENT, type=S4, ELSET=Surface2
331, 821, 848, 847, 870
332, 795, 828, 814, 808
333, 785, 757, 766, 798
334, 864, 881, 878, 859
335, 775, 837, 816, 799
336, 922, 940, 951, 932
337, 783, 808, 780, 758
338, 782, 809, 776, 756
339, 937, 956, 944, 921
340, 807, 784, 749, 772
341, 181, 769, 759, 182
342, 775, 799, 787, 760
343, 829, 836, 830, 818
344, 906, 875, 921, 928
345, 872, 861, 965, 836
346, 148, 770, 775, 760
347, 761, 142, 143, 756
348, 762, 188, 187, 758
349, 1008, 1001, 1012, 1015
350, 937, 902, 923, 957
** ... 294 like lines cut
*ELEMENT, type=S4, ELSET=Surface3
645, 9, 11, 222, 221
646, 221, 222, 12, 10
*ELEMENT, type=S4, ELSET=Surface4
647, 1022, 1021, 224, 223
648, 225, 224, 1021, 1023
649, 227, 228, 1021, 1022
650, 223, 13, 226, 1022
651, 1022, 226, 14, 227
652, 1023, 222, 11, 225
653, 222, 1023, 229, 12
654, 228, 229, 1023, 1021
*ELEMENT, type=S4, ELSET=Surface5
655, 1025, 1027, 237, 236
656, 238, 1026, 234, 16
657, 233, 15, 234, 1026
658, 12, 222, 1024, 235
659, 1024, 1025, 236, 235
660, 231, 1025, 1024, 230
661, 1027, 1025, 231, 232
662, 1026, 238, 237, 1027
663, 222, 11, 230, 1024
664, 232, 233, 1026, 1027
*ELEMENT, type=S4, ELSET=Surface6
665, 252, 251, 1032, 1033
666, 1030, 248, 247, 1028
667, 245, 17, 246, 1029
668, 253, 1029, 246, 18
669, 239, 1028, 222, 11
670, 247, 12, 222, 1028
671, 1028, 239, 240, 1030
672, 243, 1032, 1034, 242
673, 1033, 1032, 243, 244
674, 1032, 251, 250, 1034
675, 1031, 249, 248, 1030
676, 1031, 1030, 240, 241
677, 241, 242, 1034, 1031
678, 249, 1031, 1034, 250
679, 244, 245, 1029, 1033
680, 252, 1033, 1029, 253
*ELEMENT, type=S4, ELSET=Surface7
681, 1036, 1035, 255, 254
682, 256, 255, 1035, 1037
683, 258, 259, 1035, 1036
684, 254, 19, 257, 1036
685, 1036, 257, 20, 258
686, 1037, 246, 17, 256
687, 246, 1037, 260, 18
688, 259, 260, 1037, 1035
*ELEMENT, type=S4, ELSET=Surface8
689, 1039, 1041, 268, 267
690, 269, 1040, 265, 22
691, 18, 246, 1038, 266
692, 264, 21, 265, 1040
693, 1038, 1039, 267, 266
694, 1040, 1041, 263, 264
695, 262, 1039, 1038, 261
696, 1041, 1039, 262, 263
697, 1040, 269, 268, 1041
698, 246, 17, 261, 1038
*ELEMENT, type=S4, ELSET=Surface9
699, 271, 272, 1044, 1046
700, 1046, 279, 278, 1042
701, 1047, 275, 276, 1043
702, 270, 1042, 246, 17
703, 276, 23, 277, 1043
704, 284, 1043, 277, 24
705, 278, 18, 246, 1042
706, 280, 1044, 1048, 281
707, 1045, 1048, 273, 274
708, 1046, 1044, 280, 279
709, 1044, 272, 273, 1048
710, 1047, 1045, 274, 275
711, 1048, 1045, 282, 281
712, 1047, 283, 282, 1045
713, 271, 1046, 1042, 270
714, 283, 1047, 1043, 284
*ELEMENT, type=S4, ELSET=Surface10
715, 1050, 1049, 286, 285
716, 287, 286, 1049, 1051
717, 289, 290, 1049, 1050
718, 285, 25, 288, 1050
719, 1050, 288, 26, 289
720, 1051, 277, 23, 287
721, 277, 1051, 291, 24
722, 290, 291, 1051, 1049
*ELEMENT, type=S4, ELSET=Surface11
723, 1053, 1055, 299, 298
724, 300, 1054, 296, 28
725, 24, 277, 1052, 297
726, 295, 27, 296, 1054
727, 1052, 1053, 298, 297
728, 1054, 1055, 294, 295
729, 293, 1053, 1052, 292
730, 1055, 1053, 293, 294
731, 1054, 300, 299, 1055
732, 277, 23, 292, 1052
*ELEMENT, type=S4, ELSET=Surface12
733, 302, 303, 1058, 1061
734, 1061, 310, 309, 1056
735, 307, 29, 308, 1057
736, 315, 1057, 308, 30
737, 301, 1056, 277, 23
738, 309, 24, 277, 1056
739, 1057, 315, 314, 1059
740, 1061, 1058, 311, 310
741, 1057, 1059, 306, 307
742, 1062, 312, 311, 1058
743, 304, 305, 1060, 1062
744, 304, 1062, 1058, 303
745, 1062, 1060, 313, 312
746, 306, 1059, 1060, 305
747, 314, 313, 1060, 1059
748, 302, 1061, 1056, 301
*ELEMENT, type=S4, ELSET=Surface13
749, 1064, 1063, 317, 316
750, 318, 317, 1063, 1065
751, 320, 321, 1063, 1064
752, 316, 31, 319, 1064
753, 1064, 319, 32, 320
754, 1065, 308, 29, 318
755, 308, 1065, 322, 30
756, 321, 322, 1065, 1063
*ELEMENT, type=S4, ELSET=Surface14
757, 1067, 1069, 330, 329
758, 331, 1068, 327, 34
759, 326, 33, 327, 1068
760, 30, 308, 1066, 328
761, 1066, 1067, 329, 328
762, 324, 1067, 1066, 323
763, 1069, 1067, 324, 325
764, 1068, 331, 330, 1069
765, 308, 29, 323, 1066
766, 325, 326, 1068, 1069
*ELEMENT, type=S4, ELSET=Surface15
767, 345, 344, 1072, 1074
768, 333, 334, 1073, 1075
769, 1074, 337, 338, 1070
770, 332, 1071, 308, 29
771, 340, 30, 308, 1071
772, 338, 35, 339, 1070
773, 346, 1070, 339, 36
774, 1072, 344, 343, 1076
775, 1076, 343, 342, 1073
776, 1072, 1076, 335, 336
777, 1074, 1072, 336, 337
778, 1075, 1073, 342, 341
779, 335, 1076, 1073, 334
780, 345, 1074, 1070, 346
781, 341, 340, 1071, 1075
782, 333, 1075, 1071, 332
*ELEMENT, type=S4, ELSET=Surface16
783, 1078, 1077, 348, 347
784, 349, 348, 1077, 1079
785, 351, 352, 1077, 1078
786, 347, 37, 350, 1078
787, 1078, 350, 38, 351
788, 1079, 339, 35, 349
789, 339, 1079, 353, 36
790, 352, 353, 1079, 1077
*ELEMENT, type=S4, ELSET=Surface17
791, 1081, 1083, 361, 360
792, 362, 1082, 358, 40
793, 357, 39, 358, 1082
794, 36, 339, 1080, 359
795, 1080, 1081, 360, 359
796, 355, 1081, 1080, 354
797, 1083, 1081, 355, 356
798, 1082, 362, 361, 1083
799, 339, 35, 354, 1080
800, 356, 357, 1082, 1083
*ELEMENT, type=S4, ELSET=Surface18
801, 364, 365, 1086, 1089
802, 369, 1085, 1087, 368
803, 1089, 372, 371, 1084
804, 377, 1085, 370, 42
805, 369, 41, 370, 1085
806, 363, 1084, 339, 35
807, 371, 36, 339, 1084
808, 1085, 377, 376, 1087
809, 1089, 1086, 373, 372
810, 1088, 374, 373, 1086
811, 1086, 365, 366, 1088
812, 1090, 1087, 376, 375
813, 367, 368, 1087, 1090
814, 374, 1088, 1090, 375
815, 367, 1090, 1088, 366
816, 364, 1089, 1084, 363
*ELEMENT, type=S4, ELSET=Surface19
817, 1092, 1091, 379, 378
818, 380, 379, 1091, 1093
819, 382, 383, 1091, 1092
820, 378, 43, 381, 1092
821, 1092, 381, 44, 382
822, 1093, 370, 41, 380
823, 370, 1093, 384, 42
824, 383, 384, 1093, 1091
*ELEMENT, type=S4, ELSET=Surface20
825, 1095, 1097, 392, 391
826, 393, 1096, 389, 46
827, 388, 45, 389, 1096
828, 42, 370, 1094, 390
829, 1094, 1095, 391, 390
830, 386, 1095, 1094, 385
831, 1097, 1095, 386, 387
832, 1096, 393, 392, 1097
833, 370, 41, 385, 1094
834, 387, 388, 1096, 1097
*ELEMENT, type=S4, ELSET=Surface21
835, 1102, 403, 402, 1098
836, 1101, 399, 400, 1099
837, 400, 47, 401, 1099
838, 408, 1099, 401, 48
839, 394, 1098, 370, 41
840, 402, 42, 370, 1098
841, 1098, 394, 395, 1102
842, 404, 403, 1102, 1103
843, 1099, 408, 407, 1101
844, 395, 396, 1103, 1102
845, 398, 399, 1101, 1104
846, 1104, 1101, 407, 406
847, 1100, 397, 398, 1104
848, 1103, 396, 397, 1100
849, 405, 1100, 1104, 406
850, 404, 1103, 1100, 405
*ELEMENT, type=S4, ELSET=Surface22
851, 1106, 1105, 410, 409
852, 411, 410, 1105, 1107
853, 413, 414, 1105, 1106
854, 409, 49, 412, 1106
855, 1106, 412, 50, 413
856, 1107, 401, 47, 411
857, 401, 1107, 415, 48
858, 414, 415, 1107, 1105
*ELEMENT, type=S4, ELSET=Surface23
859, 1109, 1111, 423, 422
860, 424, 1110, 420, 52
861, 419, 51, 420, 1110
862, 48, 401, 1108, 421
863, 1108, 1109, 422, 421
864, 417, 1109, 1108, 416
865, 1111, 1109, 417, 418
866, 1110, 424, 423, 1111
867, 401, 47, 416, 1108
868, 418, 419, 1110, 1111
*ELEMENT, type=S4, ELSET=Surface24
869, 1116, 1118, 438, 437
870, 426, 427, 1114, 1117
871, 1118, 430, 431, 1113
872, 1117, 434, 433, 1112
873, 439, 1113, 432, 54
874, 431, 53, 432, 1113
875, 425, 1112, 401, 47
876, 433, 48, 401, 1112
877, 1114, 427, 428, 1115
878, 435, 1114, 1115, 436
879, 1118, 1116, 429, 430
880, 1117, 1114, 435, 434
881, 1115, 428, 429, 1116
882, 1116, 437, 436, 1115
883, 426, 1117, 1112, 425
884, 438, 1118, 1113, 439
*ELEMENT, type=S4, ELSET=Surface25
885, 1120, 1119, 441, 440
886, 442, 441, 1119, 1121
887, 444, 445, 1119, 1120
888, 440, 55, 443, 1120
889, 1120, 443, 56, 444
890, 1121, 432, 53, 442
891, 432, 1121, 446, 54
892, 445, 446, 1121, 1119
*ELEMENT, type=S4, ELSET=Surface26
893, 1123, 1125, 454, 453
894, 455, 1124, 451, 58
895, 450, 57, 451, 1124
896, 54, 432, 1122, 452
897, 1122, 1123, 453, 452
898, 448, 1123, 1122, 447
899, 1125, 1123, 448, 449
900, 1124, 455, 454, 1125
901, 432, 53, 447, 1122
902, 449, 450, 1124, 1125
*ELEMENT, type=S4, ELSET=Surface27
903, 1126, 460, 459, 1127
904, 1127, 456, 457, 1126
905, 460, 1126, 458, 60
906, 457, 59, 458, 1126
907, 456, 1127, 432, 53
908, 459, 54, 432, 1127
*ELSET,ELSET=WingSkin
1, 2, 3, 4, 5, 6, 7, 8, 9, 10, 
11, 12, 13, 14, 15, 16, 17, 18, 19, 20, 
21, 22, 23, 24, 25, 26, 27, 28, 29, 30, 
31, 32, 33, 34, 35, 36, 37, 38, 39, 40, 
41, 42, 43, 44, 45, 46, 47, 48, 49, 50, 
51, 52, 53, 54, 55, 56, 57, 58, 59, 60, 
61, 62, 63, 64, 65, 66, 67, 68, 69, 70, 
71, 72, 73, 74, 75, 76, 77, 78, 79, 80, 
81, 82, 83, 84, 85, 86, 87, 88, 89, 90, 
91, 92, 93, 94, 95, 96, 97, 98, 99, 100, 
101, 102, 103, 104, 105, 106, 107, 108, 109, 110, 
111, 112, 113, 114, 115, 116, 117, 118, 119, 120, 
121, 122, 123, 124, 125, 126, 127, 128, 129, 130, 
131, 132, 133, 134, 135, 136, 137, 138, 139, 140, 
141, 142, 143, 144, 145, 146, 147, 148, 149, 150, 
151, 152, 153, 154, 155, 156, 157, 158, 159, 160, 
161, 162, 163, 164, 165, 166, 167, 168, 169, 170, 
171, 172, 173, 174, 175, 176, 177, 178, 179, 180, 
181, 182, 183, 184, 185, 186, 187, 188, 189, 190, 
191, 192, 193, 194, 195, 196, 197, 198, 199, 200, 
** ... 45 like lines cut
*ELSET,ELSET=FractalWebs
645, 646, 647, 648, 649, 650, 651, 652, 653, 654, 
655, 656, 657, 658, 659, 660, 661, 662, 663, 664, 
665, 666, 667, 668, 669, 670, 671, 672, 673, 674, 
675, 676, 677, 678, 679, 680, 681, 682, 683, 684, 
685, 686, 687, 688, 689, 690, 691, 692, 693, 694, 
695, 696, 697, 698, 699, 700, 701, 702, 703, 704, 
705, 706, 707, 708, 709, 710, 711, 712, 713, 714, 
715, 716, 717, 718, 719, 720, 721, 722, 723, 724, 
725, 726, 727, 728, 729, 730, 731, 732, 733, 734, 
735, 736, 737, 738, 739, 740, 741, 742, 743, 744, 
745, 746, 747, 748, 749, 750, 751, 752, 753, 754, 
755, 756, 757, 758, 759, 760, 761, 762, 763, 764, 
765, 766, 767, 768, 769, 770, 771, 772, 773, 774, 
775, 776, 777, 778, 779, 780, 781, 782, 783, 784, 
785, 786, 787, 788, 789, 790, 791, 792, 793, 794, 
795, 796, 797, 798, 799, 800, 801, 802, 803, 804, 
805, 806, 807, 808, 809, 810, 811, 812, 813, 814, 
815, 816, 817, 818, 819, 820, 821, 822, 823, 824, 
825, 826, 827, 828, 829, 830, 831, 832, 833, 834, 
835, 836, 837, 838, 839, 840, 841, 842, 843, 844, 
** ... 7 like lines cut
*ELSET,ELSET=Web_0
645, 646, 
*ELSET,ELSET=Web_1
647, 648, 649, 650, 651, 652, 653, 654, 
*ELSET,ELSET=Web_2
655, 656, 657, 658, 659, 660, 661, 662, 663, 664, 
*ELSET,ELSET=Web_3
665, 666, 667, 668, 669, 670, 671, 672, 673, 674, 
675, 676, 677, 678, 679, 680, 
*ELSET,ELSET=Web_4
681, 682, 683, 684, 685, 686, 687, 688, 
*ELSET,ELSET=Web_5
689, 690, 691, 692, 693, 694, 695, 696, 697, 698, 
*ELSET,ELSET=Web_6
699, 700, 701, 702, 703, 704, 705, 706, 707, 708, 
709, 710, 711, 712, 713, 714, 
*ELSET,ELSET=Web_7
715, 716, 717, 718, 719, 720, 721, 722, 
*ELSET,ELSET=Web_8
723, 724, 725, 726, 727, 728, 729, 730, 731, 732, 
*ELSET,ELSET=Web_9
733, 734, 735, 736, 737, 738, 739, 740, 741, 742, 
743, 744, 745, 746, 747, 748, 
*ELSET,ELSET=Web_10
749, 750, 751, 752, 753, 754, 755, 756, 
*ELSET,ELSET=Web_11
757, 758, 759, 760, 761, 762, 763, 764, 765, 766, 
*ELSET,ELSET=Web_12
767, 768, 769, 770, 771, 772, 773, 774, 775, 776, 
777, 778, 779, 780, 781, 782, 
*ELSET,ELSET=Web_13
783, 784, 785, 786, 787, 788, 789, 790, 
*ELSET,ELSET=Web_14
791, 792, 793, 794, 795, 796, 797, 798, 799, 800, 
*ELSET,ELSET=Web_15
801, 802, 803, 804, 805, 806, 807, 808, 809, 810, 
811, 812, 813, 814, 815, 816, 
*ELSET,ELSET=Web_16
817, 818, 819, 820, 821, 822, 823, 824, 
*ELSET,ELSET=Web_17
825, 826, 827, 828, 829, 830, 831, 832, 833, 834, 
*ELSET,ELSET=Web_18
835, 836, 837, 838, 839, 840, 841, 842, 843, 844, 
845, 846, 847, 848, 849, 850, 
*ELSET,ELSET=Web_19
851, 852, 853, 854, 855, 856, 857, 858, 
*ELSET,ELSET=Web_20
859, 860, 861, 862, 863, 864, 865, 866, 867, 868, 
*ELSET,ELSET=Web_21
869, 870, 871, 872, 873, 874, 875, 876, 877, 878, 
879, 880, 881, 882, 883, 884, 
*ELSET,ELSET=Web_22
885, 886, 887, 888, 889, 890, 891, 892, 
*ELSET,ELSET=Web_23
893, 894, 895, 896, 897, 898, 899, 900, 901, 902, 
*ELSET,ELSET=Web_24
903, 904, 905, 906, 907, 908,

**
** ═══════════════════════════════════════════
** NODE SETS
** ═══════════════════════════════════════════
**
*NSET, NSET=NSET_ROOT
1, 2, 5, 6, 9, 10, 61, 62, 63, 64,
65, 66, 67, 68, 69, 141, 142, 143, 144, 145,
146, 147, 148, 149, 221,
*NSET, NSET=NSET_TIP
3, 4, 7, 8, 59, 60, 101, 102, 103, 104,
105, 106, 107, 108, 109, 181, 182, 183, 184, 185,
186, 187, 188, 189, 458,
*NSET, NSET=NSET_TIP_LOAD
105,
**
** ═══════════════════════════════════════════
** MATERIAL
** ═══════════════════════════════════════════
**
*MATERIAL, NAME=CFRP_T300
*ELASTIC, TYPE=ENGINEERING CONSTANTS
135000000000.0, 10000000000.0, 10000000000.0, 0.28, 0.28, 0.4, 5000000000.0, 5000000000.0,
3500000000.0
*DENSITY
1600.0
**
** ═══════════════════════════════════════════
** ORIENTATIONS
** ═══════════════════════════════════════════
**
*ORIENTATION, NAME=OR_SKIN, SYSTEM=RECTANGULAR
0., 1., 0.,  0., 0., 1.
*ORIENTATION, NAME=OR_Web_0, SYSTEM=RECTANGULAR
0.0, 1.0, 0.0,  0., 0., 1.
*ORIENTATION, NAME=OR_Web_1, SYSTEM=RECTANGULAR
-1.0, 0.0, 0.0,  0., 0., 1.
*ORIENTATION, NAME=OR_Web_2, SYSTEM=RECTANGULAR
1.0, 0.0, 0.0,  0., 0., 1.
*ORIENTATION, NAME=OR_Web_3, SYSTEM=RECTANGULAR
0.0, 1.0, 0.0,  0., 0., 1.
*ORIENTATION, NAME=OR_Web_4, SYSTEM=RECTANGULAR
-1.0, 0.0, 0.0,  0., 0., 1.
*ORIENTATION, NAME=OR_Web_5, SYSTEM=RECTANGULAR
1.0, 0.0, 0.0,  0., 0., 1.
*ORIENTATION, NAME=OR_Web_6, SYSTEM=RECTANGULAR
0.0, 1.0, 0.0,  0., 0., 1.
*ORIENTATION, NAME=OR_Web_7, SYSTEM=RECTANGULAR
-1.0, 0.0, 0.0,  0., 0., 1.
*ORIENTATION, NAME=OR_Web_8, SYSTEM=RECTANGULAR
1.0, 0.0, 0.0,  0., 0., 1.
*ORIENTATION, NAME=OR_Web_9, SYSTEM=RECTANGULAR
0.0, 1.0, 0.0,  0., 0., 1.
*ORIENTATION, NAME=OR_Web_10, SYSTEM=RECTANGULAR
-1.0, 0.0, 0.0,  0., 0., 1.
*ORIENTATION, NAME=OR_Web_11, SYSTEM=RECTANGULAR
1.0, 0.0, 0.0,  0., 0., 1.
*ORIENTATION, NAME=OR_Web_12, SYSTEM=RECTANGULAR
0.0, 1.0, 0.0,  0., 0., 1.
*ORIENTATION, NAME=OR_Web_13, SYSTEM=RECTANGULAR
-1.0, 0.0, 0.0,  0., 0., 1.
*ORIENTATION, NAME=OR_Web_14, SYSTEM=RECTANGULAR
1.0, 0.0, 0.0,  0., 0., 1.
*ORIENTATION, NAME=OR_Web_15, SYSTEM=RECTANGULAR
0.0, 1.0, 0.0,  0., 0., 1.
*ORIENTATION, NAME=OR_Web_16, SYSTEM=RECTANGULAR
-1.0, 0.0, 0.0,  0., 0., 1.
*ORIENTATION, NAME=OR_Web_17, SYSTEM=RECTANGULAR
1.0, 0.0, 0.0,  0., 0., 1.
*ORIENTATION, NAME=OR_Web_18, SYSTEM=RECTANGULAR
0.0, 1.0, 0.0,  0., 0., 1.
*ORIENTATION, NAME=OR_Web_19, SYSTEM=RECTANGULAR
** ... 11 like lines cut
**
** ═══════════════════════════════════════════
** SHELL SECTIONS
** ═══════════════════════════════════════════
**
*SHELL SECTION, ELSET=WingSkin, MATERIAL=CFRP_T300, ORIENTATION=OR_SKIN
0.003
*SHELL SECTION, ELSET=Web_0, MATERIAL=CFRP_T300, ORIENTATION=OR_Web_0
0.001
*SHELL SECTION, ELSET=Web_1, MATERIAL=CFRP_T300, ORIENTATION=OR_Web_1
0.0005
*SHELL SECTION, ELSET=Web_2, MATERIAL=CFRP_T300, ORIENTATION=OR_Web_2
0.0005
*SHELL SECTION, ELSET=Web_3, MATERIAL=CFRP_T300, ORIENTATION=OR_Web_3
0.001
*SHELL SECTION, ELSET=Web_4, MATERIAL=CFRP_T300, ORIENTATION=OR_Web_4
0.0005
*SHELL SECTION, ELSET=Web_5, MATERIAL=CFRP_T300, ORIENTATION=OR_Web_5
0.0005
*SHELL SECTION, ELSET=Web_6, MATERIAL=CFRP_T300, ORIENTATION=OR_Web_6
0.001
*SHELL SECTION, ELSET=Web_7, MATERIAL=CFRP_T300, ORIENTATION=OR_Web_7
0.0005
*SHELL SECTION, ELSET=Web_8, MATERIAL=CFRP_T300, ORIENTATION=OR_Web_8
0.0005
*SHELL SECTION, ELSET=Web_9, MATERIAL=CFRP_T300, ORIENTATION=OR_Web_9
0.001
*SHELL SECTION, ELSET=Web_10, MATERIAL=CFRP_T300, ORIENTATION=OR_Web_10
0.0005
*SHELL SECTION, ELSET=Web_11, MATERIAL=CFRP_T300, ORIENTATION=OR_Web_11
0.0005
*SHELL SECTION, ELSET=Web_12, MATERIAL=CFRP_T300, ORIENTATION=OR_Web_12
0.001
*SHELL SECTION, ELSET=Web_13, MATERIAL=CFRP_T300, ORIENTATION=OR_Web_13
0.0005
*SHELL SECTION, ELSET=Web_14, MATERIAL=CFRP_T300, ORIENTATION=OR_Web_14
0.0005
*SHELL SECTION, ELSET=Web_15, MATERIAL=CFRP_T300, ORIENTATION=OR_Web_15
0.001
*SHELL SECTION, ELSET=Web_16, MATERIAL=CFRP_T300, ORIENTATION=OR_Web_16
0.0005
*SHELL SECTION, ELSET=Web_17, MATERIAL=CFRP_T300, ORIENTATION=OR_Web_17
0.0005
*SHELL SECTION, ELSET=Web_18, MATERIAL=CFRP_T300, ORIENTATION=OR_Web_18
0.001
*SHELL SECTION, ELSET=Web_19, MATERIAL=CFRP_T300, ORIENTATION=OR_Web_19
** ... 11 like lines cut
**
** ═══════════════════════════════════════════
** KINEMATIC COUPLING (MPC EQUATIONS)
** ═══════════════════════════════════════════
** Tying web boundary nodes to nearest skin nodes
*EQUATION
2
11, 1, 1.0, 782, 1, -1.0
*EQUATION
2
11, 2, 1.0, 782, 2, -1.0
*EQUATION
2
11, 3, 1.0, 782, 3, -1.0
*EQUATION
2
12, 1, 1.0, 505, 1, -1.0
*EQUATION
2
12, 2, 1.0, 505, 2, -1.0
*EQUATION
2
12, 3, 1.0, 505, 3, -1.0
*EQUATION
2
13, 1, 1.0, 761, 1, -1.0
*EQUATION
2
13, 2, 1.0, 761, 2, -1.0
*EQUATION
2
13, 3, 1.0, 761, 3, -1.0
*EQUATION
2
14, 1, 1.0, 500, 1, -1.0
*EQUATION
2
14, 2, 1.0, 500, 2, -1.0
*EQUATION
2
14, 3, 1.0, 500, 3, -1.0
*EQUATION
2
15, 1, 1.0, 787, 1, -1.0
*EQUATION
2
15, 2, 1.0, 787, 2, -1.0
*EQUATION
2
15, 3, 1.0, 787, 3, -1.0
*EQUATION
2
16, 1, 1.0, 470, 1, -1.0
*EQUATION
2
16, 2, 1.0, 470, 2, -1.0
*EQUATION
2
16, 3, 1.0, 470, 3, -1.0
*EQUATION
2
17, 1, 1.0, 893, 1, -1.0
*EQUATION
2
17, 2, 1.0, 893, 2, -1.0
*EQUATION
2
17, 3, 1.0, 893, 3, -1.0
*EQUATION
2
18, 1, 1.0, 602, 1, -1.0
*EQUATION
2
18, 2, 1.0, 602, 2, -1.0
*EQUATION
2
18, 3, 1.0, 602, 3, -1.0
*EQUATION
2
19, 1, 1.0, 824, 1, -1.0
*EQUATION
2
19, 2, 1.0, 824, 2, -1.0
*EQUATION
2
19, 3, 1.0, 824, 3, -1.0
*EQUATION
2
20, 1, 1.0, 566, 1, -1.0
*EQUATION
2
20, 2, 1.0, 566, 2, -1.0
*EQUATION
2
20, 3, 1.0, 566, 3, -1.0
*EQUATION
2
21, 1, 1.0, 912, 1, -1.0
*EQUATION
2
21, 2, 1.0, 912, 2, -1.0
*EQUATION
2
21, 3, 1.0, 912, 3, -1.0
*EQUATION
2
22, 1, 1.0, 605, 1, -1.0
*EQUATION
2
22, 2, 1.0, 605, 2, -1.0
*EQUATION
2
22, 3, 1.0, 605, 3, -1.0
*EQUATION
2
23, 1, 1.0, 892, 1, -1.0
*EQUATION
2
23, 2, 1.0, 892, 2, -1.0
*EQUATION
2
23, 3, 1.0, 892, 3, -1.0
*EQUATION
2
24, 1, 1.0, 665, 1, -1.0
*EQUATION
2
24, 2, 1.0, 665, 2, -1.0
*EQUATION
2
24, 3, 1.0, 665, 3, -1.0
*EQUATION
2
25, 1, 1.0, 872, 1, -1.0
*EQUATION
2
25, 2, 1.0, 872, 2, -1.0
*EQUATION
2
25, 3, 1.0, 872, 3, -1.0
*EQUATION
2
26, 1, 1.0, 658, 1, -1.0
*EQUATION
2
26, 2, 1.0, 658, 2, -1.0
*EQUATION
2
26, 3, 1.0, 658, 3, -1.0
*EQUATION
2
27, 1, 1.0, 970, 1, -1.0
*EQUATION
2
27, 2, 1.0, 970, 2, -1.0
*EQUATION
2
27, 3, 1.0, 970, 3, -1.0
*EQUATION
2
28, 1, 1.0, 684, 1, -1.0
*EQUATION
2
28, 2, 1.0, 684, 2, -1.0
*EQUATION
2
28, 3, 1.0, 684, 3, -1.0
*EQUATION
2
29, 1, 1.0, 897, 1, -1.0
*EQUATION
2
29, 2, 1.0, 897, 2, -1.0
*EQUATION
2
29, 3, 1.0, 897, 3, -1.0
*EQUATION
2
30, 1, 1.0, 743, 1, -1.0
*EQUATION
2
30, 2, 1.0, 743, 2, -1.0
*EQUATION
2
30, 3, 1.0, 743, 3, -1.0
*EQUATION
2
31, 1, 1.0, 863, 1, -1.0
*EQUATION
2
31, 2, 1.0, 863, 2, -1.0
*EQUATION
2
31, 3, 1.0, 863, 3, -1.0
*EQUATION
2
32, 1, 1.0, 726, 1, -1.0
*EQUATION
2
32, 2, 1.0, 726, 2, -1.0
*EQUATION
2
32, 3, 1.0, 726, 3, -1.0
*EQUATION
2
33, 1, 1.0, 967, 1, -1.0
*EQUATION
2
33, 2, 1.0, 967, 2, -1.0
*EQUATION
2
33, 3, 1.0, 967, 3, -1.0
*EQUATION
2
34, 1, 1.0, 722, 1, -1.0
*EQUATION
2
34, 2, 1.0, 722, 2, -1.0
*EQUATION
2
34, 3, 1.0, 722, 3, -1.0
*EQUATION
2
35, 1, 1.0, 898, 1, -1.0
*EQUATION
2
35, 2, 1.0, 898, 2, -1.0
*EQUATION
2
35, 3, 1.0, 898, 3, -1.0
*EQUATION
2
36, 1, 1.0, 671, 1, -1.0
*EQUATION
2
36, 2, 1.0, 671, 2, -1.0
*EQUATION
2
36, 3, 1.0, 671, 3, -1.0
*EQUATION
2
37, 1, 1.0, 868, 1, -1.0
*EQUATION
2
37, 2, 1.0, 868, 2, -1.0
*EQUATION
2
37, 3, 1.0, 868, 3, -1.0
*EQUATION
2
38, 1, 1.0, 664, 1, -1.0
*EQUATION
2
38, 2, 1.0, 664, 2, -1.0
*EQUATION
2
38, 3, 1.0, 664, 3, -1.0
*EQUATION
2
39, 1, 1.0, 975, 1, -1.0
*EQUATION
2
39, 2, 1.0, 975, 2, -1.0
*EQUATION
2
39, 3, 1.0, 975, 3, -1.0
*EQUATION
2
40, 1, 1.0, 480, 1, -1.0
*EQUATION
2
40, 2, 1.0, 480, 2, -1.0
*EQUATION
2
40, 3, 1.0, 480, 3, -1.0
*EQUATION
2
41, 1, 1.0, 923, 1, -1.0
*EQUATION
2
41, 2, 1.0, 923, 2, -1.0
*EQUATION
2
41, 3, 1.0, 923, 3, -1.0
*EQUATION
2
42, 1, 1.0, 471, 1, -1.0
*EQUATION
2
42, 2, 1.0, 471, 2, -1.0
*EQUATION
2
42, 3, 1.0, 471, 3, -1.0
*EQUATION
2
43, 1, 1.0, 833, 1, -1.0
*EQUATION
2
43, 2, 1.0, 833, 2, -1.0
*EQUATION
2
43, 3, 1.0, 833, 3, -1.0
*EQUATION
2
44, 1, 1.0, 576, 1, -1.0
*EQUATION
2
44, 2, 1.0, 576, 2, -1.0
*EQUATION
2
44, 3, 1.0, 576, 3, -1.0
*EQUATION
2
45, 1, 1.0, 972, 1, -1.0
*EQUATION
2
45, 2, 1.0, 972, 2, -1.0
*EQUATION
2
45, 3, 1.0, 972, 3, -1.0
*EQUATION
2
46, 1, 1.0, 606, 1, -1.0
*EQUATION
2
46, 2, 1.0, 606, 2, -1.0
*EQUATION
2
46, 3, 1.0, 606, 3, -1.0
*EQUATION
2
47, 1, 1.0, 887, 1, -1.0
*EQUATION
2
47, 2, 1.0, 887, 2, -1.0
*EQUATION
2
47, 3, 1.0, 887, 3, -1.0
*EQUATION
2
48, 1, 1.0, 476, 1, -1.0
*EQUATION
2
48, 2, 1.0, 476, 2, -1.0
*EQUATION
2
48, 3, 1.0, 476, 3, -1.0
*EQUATION
2
49, 1, 1.0, 866, 1, -1.0
*EQUATION
2
49, 2, 1.0, 866, 2, -1.0
*EQUATION
2
49, 3, 1.0, 866, 3, -1.0
*EQUATION
2
50, 1, 1.0, 509, 1, -1.0
*EQUATION
2
50, 2, 1.0, 509, 2, -1.0
*EQUATION
2
50, 3, 1.0, 509, 3, -1.0
*EQUATION
2
51, 1, 1.0, 905, 1, -1.0
*EQUATION
2
51, 2, 1.0, 905, 2, -1.0
*EQUATION
2
51, 3, 1.0, 905, 3, -1.0
*EQUATION
2
52, 1, 1.0, 586, 1, -1.0
*EQUATION
2
52, 2, 1.0, 586, 2, -1.0
*EQUATION
2
52, 3, 1.0, 586, 3, -1.0
*EQUATION
2
53, 1, 1.0, 822, 1, -1.0
*EQUATION
2
53, 2, 1.0, 822, 2, -1.0
*EQUATION
2
53, 3, 1.0, 822, 3, -1.0
*EQUATION
2
54, 1, 1.0, 522, 1, -1.0
*EQUATION
2
54, 2, 1.0, 522, 2, -1.0
*EQUATION
2
54, 3, 1.0, 522, 3, -1.0
*EQUATION
2
55, 1, 1.0, 759, 1, -1.0
*EQUATION
2
55, 2, 1.0, 759, 2, -1.0
*EQUATION
2
55, 3, 1.0, 759, 3, -1.0
*EQUATION
2
56, 1, 1.0, 494, 1, -1.0
*EQUATION
2
56, 2, 1.0, 494, 2, -1.0
*EQUATION
2
56, 3, 1.0, 494, 3, -1.0
*EQUATION
2
57, 1, 1.0, 808, 1, -1.0
*EQUATION
2
57, 2, 1.0, 808, 2, -1.0
*EQUATION
2
57, 3, 1.0, 808, 3, -1.0
*EQUATION
2
58, 1, 1.0, 495, 1, -1.0
*EQUATION
2
58, 2, 1.0, 495, 2, -1.0
*EQUATION
2
58, 3, 1.0, 495, 3, -1.0
*EQUATION
2
59, 1, 1.0, 184, 1, -1.0
*EQUATION
2
59, 2, 1.0, 184, 2, -1.0
*EQUATION
2
59, 3, 1.0, 184, 3, -1.0
*EQUATION
2
60, 1, 1.0, 106, 1, -1.0
*EQUATION
2
60, 2, 1.0, 106, 2, -1.0
*EQUATION
2
60, 3, 1.0, 106, 3, -1.0
*EQUATION
2
223, 1, 1.0, 756, 1, -1.0
*EQUATION
2
223, 2, 1.0, 756, 2, -1.0
*EQUATION
2
223, 3, 1.0, 756, 3, -1.0
*EQUATION
2
224, 1, 1.0, 143, 1, -1.0
*EQUATION
2
224, 2, 1.0, 143, 2, -1.0
*EQUATION
2
224, 3, 1.0, 143, 3, -1.0
*EQUATION
2
225, 1, 1.0, 144, 1, -1.0
*EQUATION
2
225, 2, 1.0, 144, 2, -1.0
*EQUATION
2
225, 3, 1.0, 144, 3, -1.0
*EQUATION
2
226, 1, 1.0, 469, 1, -1.0
*EQUATION
2
226, 2, 1.0, 469, 2, -1.0
*EQUATION
2
226, 3, 1.0, 469, 3, -1.0
*EQUATION
2
227, 1, 1.0, 68, 1, -1.0
*EQUATION
2
227, 2, 1.0, 68, 2, -1.0
*EQUATION
2
227, 3, 1.0, 68, 3, -1.0
*EQUATION
2
228, 1, 1.0, 486, 1, -1.0
*EQUATION
2
228, 2, 1.0, 486, 2, -1.0
*EQUATION
2
228, 3, 1.0, 486, 3, -1.0
*EQUATION
2
229, 1, 1.0, 67, 1, -1.0
*EQUATION
2
229, 2, 1.0, 67, 2, -1.0
*EQUATION
2
229, 3, 1.0, 67, 3, -1.0
*EQUATION
2
230, 1, 1.0, 763, 1, -1.0
*EQUATION
2
230, 2, 1.0, 763, 2, -1.0
*EQUATION
2
230, 3, 1.0, 763, 3, -1.0
*EQUATION
2
231, 1, 1.0, 145, 1, -1.0
*EQUATION
2
231, 2, 1.0, 145, 2, -1.0
*EQUATION
2
231, 3, 1.0, 145, 3, -1.0
*EQUATION
2
232, 1, 1.0, 750, 1, -1.0
*EQUATION
2
232, 2, 1.0, 750, 2, -1.0
*EQUATION
2
232, 3, 1.0, 750, 3, -1.0
*EQUATION
2
233, 1, 1.0, 146, 1, -1.0
*EQUATION
2
233, 2, 1.0, 146, 2, -1.0
*EQUATION
2
233, 3, 1.0, 146, 3, -1.0
*EQUATION
2
234, 1, 1.0, 502, 1, -1.0
*EQUATION
2
234, 2, 1.0, 502, 2, -1.0
*EQUATION
2
234, 3, 1.0, 502, 3, -1.0
*EQUATION
2
235, 1, 1.0, 465, 1, -1.0
*EQUATION
2
235, 2, 1.0, 465, 2, -1.0
*EQUATION
2
235, 3, 1.0, 465, 3, -1.0
*EQUATION
2
236, 1, 1.0, 65, 1, -1.0
*EQUATION
2
236, 2, 1.0, 65, 2, -1.0
*EQUATION
2
236, 3, 1.0, 65, 3, -1.0
*EQUATION
2
237, 1, 1.0, 64, 1, -1.0
*EQUATION
2
237, 2, 1.0, 64, 2, -1.0
*EQUATION
2
237, 3, 1.0, 64, 3, -1.0
*EQUATION
2
238, 1, 1.0, 63, 1, -1.0
*EQUATION
2
238, 2, 1.0, 63, 2, -1.0
*EQUATION
2
238, 3, 1.0, 63, 3, -1.0
*EQUATION
2
239, 1, 1.0, 809, 1, -1.0
*EQUATION
2
239, 2, 1.0, 809, 2, -1.0
*EQUATION
2
239, 3, 1.0, 809, 3, -1.0
*EQUATION
2
240, 1, 1.0, 537, 1, -1.0
*EQUATION
2
240, 2, 1.0, 537, 2, -1.0
*EQUATION
2
240, 3, 1.0, 537, 3, -1.0
*EQUATION
2
241, 1, 1.0, 823, 1, -1.0
*EQUATION
2
241, 2, 1.0, 823, 2, -1.0
*EQUATION
2
241, 3, 1.0, 823, 3, -1.0
*EQUATION
2
242, 1, 1.0, 827, 1, -1.0
*EQUATION
2
242, 2, 1.0, 827, 2, -1.0
*EQUATION
2
242, 3, 1.0, 827, 3, -1.0
*EQUATION
2
243, 1, 1.0, 873, 1, -1.0
*EQUATION
2
243, 2, 1.0, 873, 2, -1.0
*EQUATION
2
243, 3, 1.0, 873, 3, -1.0
*EQUATION
2
244, 1, 1.0, 851, 1, -1.0
*EQUATION
2
244, 2, 1.0, 851, 2, -1.0
*EQUATION
2
244, 3, 1.0, 851, 3, -1.0
*EQUATION
2
245, 1, 1.0, 858, 1, -1.0
*EQUATION
2
245, 2, 1.0, 858, 2, -1.0
*EQUATION
2
245, 3, 1.0, 858, 3, -1.0
*EQUATION
2
247, 1, 1.0, 510, 1, -1.0
*EQUATION
2
247, 2, 1.0, 510, 2, -1.0
*EQUATION
2
247, 3, 1.0, 510, 3, -1.0
*EQUATION
2
248, 1, 1.0, 518, 1, -1.0
*EQUATION
2
248, 2, 1.0, 518, 2, -1.0
*EQUATION
2
248, 3, 1.0, 518, 3, -1.0
*EQUATION
2
249, 1, 1.0, 549, 1, -1.0
*EQUATION
2
249, 2, 1.0, 549, 2, -1.0
*EQUATION
2
249, 3, 1.0, 549, 3, -1.0
*EQUATION
2
250, 1, 1.0, 547, 1, -1.0
*EQUATION
2
250, 2, 1.0, 547, 2, -1.0
*EQUATION
2
250, 3, 1.0, 547, 3, -1.0
*EQUATION
2
251, 1, 1.0, 569, 1, -1.0
*EQUATION
2
251, 2, 1.0, 569, 2, -1.0
*EQUATION
2
251, 3, 1.0, 569, 3, -1.0
*EQUATION
2
252, 1, 1.0, 542, 1, -1.0
*EQUATION
2
252, 2, 1.0, 542, 2, -1.0
*EQUATION
2
252, 3, 1.0, 542, 3, -1.0
*EQUATION
2
253, 1, 1.0, 577, 1, -1.0
*EQUATION
2
253, 2, 1.0, 577, 2, -1.0
*EQUATION
2
253, 3, 1.0, 577, 3, -1.0
*EQUATION
2
254, 1, 1.0, 840, 1, -1.0
*EQUATION
2
254, 2, 1.0, 840, 2, -1.0
*EQUATION
2
254, 3, 1.0, 840, 3, -1.0
*EQUATION
2
255, 1, 1.0, 874, 1, -1.0
*EQUATION
2
255, 2, 1.0, 874, 2, -1.0
*EQUATION
2
255, 3, 1.0, 874, 3, -1.0
*EQUATION
2
256, 1, 1.0, 580, 1, -1.0
*EQUATION
2
256, 2, 1.0, 580, 2, -1.0
*EQUATION
2
256, 3, 1.0, 580, 3, -1.0
*EQUATION
2
257, 1, 1.0, 774, 1, -1.0
*EQUATION
2
257, 2, 1.0, 774, 2, -1.0
*EQUATION
2
257, 3, 1.0, 774, 3, -1.0
*EQUATION
2
258, 1, 1.0, 538, 1, -1.0
*EQUATION
2
258, 2, 1.0, 538, 2, -1.0
*EQUATION
2
258, 3, 1.0, 538, 3, -1.0
*EQUATION
2
259, 1, 1.0, 528, 1, -1.0
*EQUATION
2
259, 2, 1.0, 528, 2, -1.0
*EQUATION
2
259, 3, 1.0, 528, 3, -1.0
*EQUATION
2
260, 1, 1.0, 633, 1, -1.0
*EQUATION
2
260, 2, 1.0, 633, 2, -1.0
*EQUATION
2
260, 3, 1.0, 633, 3, -1.0
*EQUATION
2
261, 1, 1.0, 911, 1, -1.0
*EQUATION
2
261, 2, 1.0, 911, 2, -1.0
*EQUATION
2
261, 3, 1.0, 911, 3, -1.0
*EQUATION
2
262, 1, 1.0, 901, 1, -1.0
*EQUATION
2
262, 2, 1.0, 901, 2, -1.0
*EQUATION
2
262, 3, 1.0, 901, 3, -1.0
*EQUATION
2
263, 1, 1.0, 883, 1, -1.0
*EQUATION
2
263, 2, 1.0, 883, 2, -1.0
*EQUATION
2
263, 3, 1.0, 883, 3, -1.0
*EQUATION
2
264, 1, 1.0, 857, 1, -1.0
*EQUATION
2
264, 2, 1.0, 857, 2, -1.0
*EQUATION
2
264, 3, 1.0, 857, 3, -1.0
*EQUATION
2
265, 1, 1.0, 929, 1, -1.0
*EQUATION
2
265, 2, 1.0, 929, 2, -1.0
*EQUATION
2
265, 3, 1.0, 929, 3, -1.0
*EQUATION
2
266, 1, 1.0, 567, 1, -1.0
*EQUATION
2
266, 2, 1.0, 567, 2, -1.0
*EQUATION
2
266, 3, 1.0, 567, 3, -1.0
*EQUATION
2
267, 1, 1.0, 588, 1, -1.0
*EQUATION
2
267, 2, 1.0, 588, 2, -1.0
*EQUATION
2
267, 3, 1.0, 588, 3, -1.0
*EQUATION
2
268, 1, 1.0, 581, 1, -1.0
*EQUATION
2
268, 2, 1.0, 581, 2, -1.0
*EQUATION
2
268, 3, 1.0, 581, 3, -1.0
*EQUATION
2
269, 1, 1.0, 598, 1, -1.0
*EQUATION
2
269, 2, 1.0, 598, 2, -1.0
*EQUATION
2
269, 3, 1.0, 598, 3, -1.0
*EQUATION
2
270, 1, 1.0, 879, 1, -1.0
*EQUATION
2
270, 2, 1.0, 879, 2, -1.0
*EQUATION
2
270, 3, 1.0, 879, 3, -1.0
*EQUATION
2
271, 1, 1.0, 913, 1, -1.0
*EQUATION
2
271, 2, 1.0, 913, 2, -1.0
*EQUATION
2
271, 3, 1.0, 913, 3, -1.0
*EQUATION
2
272, 1, 1.0, 891, 1, -1.0
*EQUATION
2
272, 2, 1.0, 891, 2, -1.0
*EQUATION
2
272, 3, 1.0, 891, 3, -1.0
*EQUATION
2
273, 1, 1.0, 659, 1, -1.0
*EQUATION
2
273, 2, 1.0, 659, 2, -1.0
*EQUATION
2
273, 3, 1.0, 659, 3, -1.0
*EQUATION
2
274, 1, 1.0, 896, 1, -1.0
*EQUATION
2
274, 2, 1.0, 896, 2, -1.0
*EQUATION
2
274, 3, 1.0, 896, 3, -1.0
*EQUATION
2
275, 1, 1.0, 854, 1, -1.0
*EQUATION
2
275, 2, 1.0, 854, 2, -1.0
*EQUATION
2
275, 3, 1.0, 854, 3, -1.0
*EQUATION
2
276, 1, 1.0, 927, 1, -1.0
*EQUATION
2
276, 2, 1.0, 927, 2, -1.0
*EQUATION
2
276, 3, 1.0, 927, 3, -1.0
*EQUATION
2
278, 1, 1.0, 615, 1, -1.0
*EQUATION
2
278, 2, 1.0, 615, 2, -1.0
*EQUATION
2
278, 3, 1.0, 615, 3, -1.0
*EQUATION
2
279, 1, 1.0, 616, 1, -1.0
*EQUATION
2
279, 2, 1.0, 616, 2, -1.0
*EQUATION
2
279, 3, 1.0, 616, 3, -1.0
*EQUATION
2
280, 1, 1.0, 645, 1, -1.0
*EQUATION
2
280, 2, 1.0, 645, 2, -1.0
*EQUATION
2
280, 3, 1.0, 645, 3, -1.0
*EQUATION
2
281, 1, 1.0, 646, 1, -1.0
*EQUATION
2
281, 2, 1.0, 646, 2, -1.0
*EQUATION
2
281, 3, 1.0, 646, 3, -1.0
*EQUATION
2
282, 1, 1.0, 688, 1, -1.0
*EQUATION
2
282, 2, 1.0, 688, 2, -1.0
*EQUATION
2
282, 3, 1.0, 688, 3, -1.0
*EQUATION
2
283, 1, 1.0, 673, 1, -1.0
*EQUATION
2
283, 2, 1.0, 673, 2, -1.0
*EQUATION
2
283, 3, 1.0, 673, 3, -1.0
*EQUATION
2
284, 1, 1.0, 680, 1, -1.0
*EQUATION
2
284, 2, 1.0, 680, 2, -1.0
*EQUATION
2
284, 3, 1.0, 680, 3, -1.0
*EQUATION
2
285, 1, 1.0, 831, 1, -1.0
*EQUATION
2
285, 2, 1.0, 831, 2, -1.0
*EQUATION
2
285, 3, 1.0, 831, 3, -1.0
*EQUATION
2
286, 1, 1.0, 861, 1, -1.0
*EQUATION
2
286, 2, 1.0, 861, 2, -1.0
*EQUATION
2
286, 3, 1.0, 861, 3, -1.0
*EQUATION
2
287, 1, 1.0, 900, 1, -1.0
*EQUATION
2
287, 2, 1.0, 900, 2, -1.0
*EQUATION
2
287, 3, 1.0, 900, 3, -1.0
*EQUATION
2
288, 1, 1.0, 836, 1, -1.0
*EQUATION
2
288, 2, 1.0, 836, 2, -1.0
*EQUATION
2
288, 3, 1.0, 836, 3, -1.0
*EQUATION
2
289, 1, 1.0, 683, 1, -1.0
*EQUATION
2
289, 2, 1.0, 683, 2, -1.0
*EQUATION
2
289, 3, 1.0, 683, 3, -1.0
*EQUATION
2
290, 1, 1.0, 698, 1, -1.0
*EQUATION
2
290, 2, 1.0, 698, 2, -1.0
*EQUATION
2
290, 3, 1.0, 698, 3, -1.0
*EQUATION
2
291, 1, 1.0, 695, 1, -1.0
*EQUATION
2
291, 2, 1.0, 695, 2, -1.0
*EQUATION
2
291, 3, 1.0, 695, 3, -1.0
*EQUATION
2
292, 1, 1.0, 962, 1, -1.0
*EQUATION
2
292, 2, 1.0, 962, 2, -1.0
*EQUATION
2
292, 3, 1.0, 962, 3, -1.0
*EQUATION
2
293, 1, 1.0, 947, 1, -1.0
*EQUATION
2
293, 2, 1.0, 947, 2, -1.0
*EQUATION
2
293, 3, 1.0, 947, 3, -1.0
*EQUATION
2
294, 1, 1.0, 976, 1, -1.0
*EQUATION
2
294, 2, 1.0, 976, 2, -1.0
*EQUATION
2
294, 3, 1.0, 976, 3, -1.0
*EQUATION
2
295, 1, 1.0, 955, 1, -1.0
*EQUATION
2
295, 2, 1.0, 955, 2, -1.0
*EQUATION
2
295, 3, 1.0, 955, 3, -1.0
*EQUATION
2
296, 1, 1.0, 675, 1, -1.0
*EQUATION
2
296, 2, 1.0, 675, 2, -1.0
*EQUATION
2
296, 3, 1.0, 675, 3, -1.0
*EQUATION
2
297, 1, 1.0, 709, 1, -1.0
*EQUATION
2
297, 2, 1.0, 709, 2, -1.0
*EQUATION
2
297, 3, 1.0, 709, 3, -1.0
*EQUATION
2
298, 1, 1.0, 655, 1, -1.0
*EQUATION
2
298, 2, 1.0, 655, 2, -1.0
*EQUATION
2
298, 3, 1.0, 655, 3, -1.0
*EQUATION
2
299, 1, 1.0, 696, 1, -1.0
*EQUATION
2
299, 2, 1.0, 696, 2, -1.0
*EQUATION
2
299, 3, 1.0, 696, 3, -1.0
*EQUATION
2
300, 1, 1.0, 685, 1, -1.0
*EQUATION
2
300, 2, 1.0, 685, 2, -1.0
*EQUATION
2
300, 3, 1.0, 685, 3, -1.0
*EQUATION
2
301, 1, 1.0, 936, 1, -1.0
*EQUATION
2
301, 2, 1.0, 936, 2, -1.0
*EQUATION
2
301, 3, 1.0, 936, 3, -1.0
*EQUATION
2
302, 1, 1.0, 943, 1, -1.0
*EQUATION
2
302, 2, 1.0, 943, 2, -1.0
*EQUATION
2
302, 3, 1.0, 943, 3, -1.0
*EQUATION
2
303, 1, 1.0, 705, 1, -1.0
*EQUATION
2
303, 2, 1.0, 705, 2, -1.0
*EQUATION
2
303, 3, 1.0, 705, 3, -1.0
*EQUATION
2
304, 1, 1.0, 960, 1, -1.0
*EQUATION
2
304, 2, 1.0, 960, 2, -1.0
*EQUATION
2
304, 3, 1.0, 960, 3, -1.0
*EQUATION
2
305, 1, 1.0, 918, 1, -1.0
*EQUATION
2
305, 2, 1.0, 918, 2, -1.0
*EQUATION
2
305, 3, 1.0, 918, 3, -1.0
*EQUATION
2
306, 1, 1.0, 910, 1, -1.0
*EQUATION
2
306, 2, 1.0, 910, 2, -1.0
*EQUATION
2
306, 3, 1.0, 910, 3, -1.0
*EQUATION
2
307, 1, 1.0, 886, 1, -1.0
*EQUATION
2
307, 2, 1.0, 886, 2, -1.0
*EQUATION
2
307, 3, 1.0, 886, 3, -1.0
*EQUATION
2
309, 1, 1.0, 719, 1, -1.0
*EQUATION
2
309, 2, 1.0, 719, 2, -1.0
*EQUATION
2
309, 3, 1.0, 719, 3, -1.0
*EQUATION
2
310, 1, 1.0, 736, 1, -1.0
*EQUATION
2
310, 2, 1.0, 736, 2, -1.0
*EQUATION
2
310, 3, 1.0, 736, 3, -1.0
*EQUATION
2
311, 1, 1.0, 724, 1, -1.0
*EQUATION
2
311, 2, 1.0, 724, 2, -1.0
*EQUATION
2
311, 3, 1.0, 724, 3, -1.0
*EQUATION
2
312, 1, 1.0, 742, 1, -1.0
*EQUATION
2
312, 2, 1.0, 742, 2, -1.0
*EQUATION
2
312, 3, 1.0, 742, 3, -1.0
*EQUATION
2
313, 1, 1.0, 727, 1, -1.0
*EQUATION
2
313, 2, 1.0, 727, 2, -1.0
*EQUATION
2
313, 3, 1.0, 727, 3, -1.0
*EQUATION
2
314, 1, 1.0, 732, 1, -1.0
*EQUATION
2
314, 2, 1.0, 732, 2, -1.0
*EQUATION
2
314, 3, 1.0, 732, 3, -1.0
*EQUATION
2
315, 1, 1.0, 725, 1, -1.0
*EQUATION
2
315, 2, 1.0, 725, 2, -1.0
*EQUATION
2
315, 3, 1.0, 725, 3, -1.0
*EQUATION
2
316, 1, 1.0, 914, 1, -1.0
*EQUATION
2
316, 2, 1.0, 914, 2, -1.0
*EQUATION
2
316, 3, 1.0, 914, 3, -1.0
*EQUATION
2
317, 1, 1.0, 888, 1, -1.0
*EQUATION
2
317, 2, 1.0, 888, 2, -1.0
*EQUATION
2
317, 3, 1.0, 888, 3, -1.0
*EQUATION
2
318, 1, 1.0, 926, 1, -1.0
*EQUATION
2
318, 2, 1.0, 926, 2, -1.0
*EQUATION
2
318, 3, 1.0, 926, 3, -1.0
*EQUATION
2
319, 1, 1.0, 884, 1, -1.0
*EQUATION
2
319, 2, 1.0, 884, 2, -1.0
*EQUATION
2
319, 3, 1.0, 884, 3, -1.0
*EQUATION
2
320, 1, 1.0, 731, 1, -1.0
*EQUATION
2
320, 2, 1.0, 731, 2, -1.0
*EQUATION
2
320, 3, 1.0, 731, 3, -1.0
*EQUATION
2
321, 1, 1.0, 721, 1, -1.0
*EQUATION
2
321, 2, 1.0, 721, 2, -1.0
*EQUATION
2
321, 3, 1.0, 721, 3, -1.0
*EQUATION
2
322, 1, 1.0, 711, 1, -1.0
*EQUATION
2
322, 2, 1.0, 711, 2, -1.0
*EQUATION
2
322, 3, 1.0, 711, 3, -1.0
*EQUATION
2
323, 1, 1.0, 945, 1, -1.0
*EQUATION
2
323, 2, 1.0, 945, 2, -1.0
*EQUATION
2
323, 3, 1.0, 945, 3, -1.0
*EQUATION
2
324, 1, 1.0, 933, 1, -1.0
*EQUATION
2
324, 2, 1.0, 933, 2, -1.0
*EQUATION
2
324, 3, 1.0, 933, 3, -1.0
*EQUATION
2
325, 1, 1.0, 745, 1, -1.0
*EQUATION
2
325, 2, 1.0, 745, 2, -1.0
*EQUATION
2
325, 3, 1.0, 745, 3, -1.0
*EQUATION
2
326, 1, 1.0, 952, 1, -1.0
*EQUATION
2
326, 2, 1.0, 952, 2, -1.0
*EQUATION
2
326, 3, 1.0, 952, 3, -1.0
*EQUATION
2
327, 1, 1.0, 997, 1, -1.0
*EQUATION
2
327, 2, 1.0, 997, 2, -1.0
*EQUATION
2
327, 3, 1.0, 997, 3, -1.0
*EQUATION
2
328, 1, 1.0, 715, 1, -1.0
*EQUATION
2
328, 2, 1.0, 715, 2, -1.0
*EQUATION
2
328, 3, 1.0, 715, 3, -1.0
*EQUATION
2
329, 1, 1.0, 700, 1, -1.0
*EQUATION
2
329, 2, 1.0, 700, 2, -1.0
*EQUATION
2
329, 3, 1.0, 700, 3, -1.0
*EQUATION
2
330, 1, 1.0, 961, 1, -1.0
*EQUATION
2
330, 2, 1.0, 961, 2, -1.0
*EQUATION
2
330, 3, 1.0, 961, 3, -1.0
*EQUATION
2
331, 1, 1.0, 733, 1, -1.0
*EQUATION
2
331, 2, 1.0, 733, 2, -1.0
*EQUATION
2
331, 3, 1.0, 733, 3, -1.0
*EQUATION
2
332, 1, 1.0, 702, 1, -1.0
*EQUATION
2
332, 2, 1.0, 702, 2, -1.0
*EQUATION
2
332, 3, 1.0, 702, 3, -1.0
*EQUATION
2
333, 1, 1.0, 907, 1, -1.0
*EQUATION
2
333, 2, 1.0, 907, 2, -1.0
*EQUATION
2
333, 3, 1.0, 907, 3, -1.0
*EQUATION
2
334, 1, 1.0, 856, 1, -1.0
*EQUATION
2
334, 2, 1.0, 856, 2, -1.0
*EQUATION
2
334, 3, 1.0, 856, 3, -1.0
*EQUATION
2
335, 1, 1.0, 925, 1, -1.0
*EQUATION
2
335, 2, 1.0, 925, 2, -1.0
*EQUATION
2
335, 3, 1.0, 925, 3, -1.0
*EQUATION
2
336, 1, 1.0, 882, 1, -1.0
*EQUATION
2
336, 2, 1.0, 882, 2, -1.0
*EQUATION
2
336, 3, 1.0, 882, 3, -1.0
*EQUATION
2
337, 1, 1.0, 697, 1, -1.0
*EQUATION
2
337, 2, 1.0, 697, 2, -1.0
*EQUATION
2
337, 3, 1.0, 697, 3, -1.0
*EQUATION
2
338, 1, 1.0, 687, 1, -1.0
*EQUATION
2
338, 2, 1.0, 687, 2, -1.0
*EQUATION
2
338, 3, 1.0, 687, 3, -1.0
*EQUATION
2
340, 1, 1.0, 839, 1, -1.0
*EQUATION
2
340, 2, 1.0, 839, 2, -1.0
*EQUATION
2
340, 3, 1.0, 839, 3, -1.0
*EQUATION
2
341, 1, 1.0, 691, 1, -1.0
*EQUATION
2
341, 2, 1.0, 691, 2, -1.0
*EQUATION
2
341, 3, 1.0, 691, 3, -1.0
*EQUATION
2
342, 1, 1.0, 708, 1, -1.0
*EQUATION
2
342, 2, 1.0, 708, 2, -1.0
*EQUATION
2
342, 3, 1.0, 708, 3, -1.0
*EQUATION
2
343, 1, 1.0, 843, 1, -1.0
*EQUATION
2
343, 2, 1.0, 843, 2, -1.0
*EQUATION
2
343, 3, 1.0, 843, 3, -1.0
*EQUATION
2
344, 1, 1.0, 679, 1, -1.0
*EQUATION
2
344, 2, 1.0, 679, 2, -1.0
*EQUATION
2
344, 3, 1.0, 679, 3, -1.0
*EQUATION
2
345, 1, 1.0, 682, 1, -1.0
*EQUATION
2
345, 2, 1.0, 682, 2, -1.0
*EQUATION
2
345, 3, 1.0, 682, 3, -1.0
*EQUATION
2
346, 1, 1.0, 660, 1, -1.0
*EQUATION
2
346, 2, 1.0, 660, 2, -1.0
*EQUATION
2
346, 3, 1.0, 660, 3, -1.0
*EQUATION
2
347, 1, 1.0, 855, 1, -1.0
*EQUATION
2
347, 2, 1.0, 855, 2, -1.0
*EQUATION
2
347, 3, 1.0, 855, 3, -1.0
*EQUATION
2
348, 1, 1.0, 847, 1, -1.0
*EQUATION
2
348, 2, 1.0, 847, 2, -1.0
*EQUATION
2
348, 3, 1.0, 847, 3, -1.0
*EQUATION
2
349, 1, 1.0, 894, 1, -1.0
*EQUATION
2
349, 2, 1.0, 894, 2, -1.0
*EQUATION
2
349, 3, 1.0, 894, 3, -1.0
*EQUATION
2
350, 1, 1.0, 690, 1, -1.0
*EQUATION
2
350, 2, 1.0, 690, 2, -1.0
*EQUATION
2
350, 3, 1.0, 690, 3, -1.0
*EQUATION
2
351, 1, 1.0, 656, 1, -1.0
*EQUATION
2
351, 2, 1.0, 656, 2, -1.0
*EQUATION
2
351, 3, 1.0, 656, 3, -1.0
*EQUATION
2
352, 1, 1.0, 648, 1, -1.0
*EQUATION
2
352, 2, 1.0, 648, 2, -1.0
*EQUATION
2
352, 3, 1.0, 648, 3, -1.0
*EQUATION
2
353, 1, 1.0, 908, 1, -1.0
*EQUATION
2
353, 2, 1.0, 908, 2, -1.0
*EQUATION
2
353, 3, 1.0, 908, 3, -1.0
*EQUATION
2
354, 1, 1.0, 942, 1, -1.0
*EQUATION
2
354, 2, 1.0, 942, 2, -1.0
*EQUATION
2
354, 3, 1.0, 942, 3, -1.0
*EQUATION
2
355, 1, 1.0, 934, 1, -1.0
*EQUATION
2
355, 2, 1.0, 934, 2, -1.0
*EQUATION
2
355, 3, 1.0, 934, 3, -1.0
*EQUATION
2
356, 1, 1.0, 674, 1, -1.0
*EQUATION
2
356, 2, 1.0, 674, 2, -1.0
*EQUATION
2
356, 3, 1.0, 674, 3, -1.0
*EQUATION
2
357, 1, 1.0, 650, 1, -1.0
*EQUATION
2
357, 2, 1.0, 650, 2, -1.0
*EQUATION
2
357, 3, 1.0, 650, 3, -1.0
*EQUATION
2
358, 1, 1.0, 662, 1, -1.0
*EQUATION
2
358, 2, 1.0, 662, 2, -1.0
*EQUATION
2
358, 3, 1.0, 662, 3, -1.0
*EQUATION
2
359, 1, 1.0, 915, 1, -1.0
*EQUATION
2
359, 2, 1.0, 915, 2, -1.0
*EQUATION
2
359, 3, 1.0, 915, 3, -1.0
*EQUATION
2
360, 1, 1.0, 631, 1, -1.0
*EQUATION
2
360, 2, 1.0, 631, 2, -1.0
*EQUATION
2
360, 3, 1.0, 631, 3, -1.0
*EQUATION
2
361, 1, 1.0, 959, 1, -1.0
*EQUATION
2
361, 2, 1.0, 959, 2, -1.0
*EQUATION
2
361, 3, 1.0, 959, 3, -1.0
*EQUATION
2
362, 1, 1.0, 663, 1, -1.0
*EQUATION
2
362, 2, 1.0, 663, 2, -1.0
*EQUATION
2
362, 3, 1.0, 663, 3, -1.0
*EQUATION
2
363, 1, 1.0, 637, 1, -1.0
*EQUATION
2
363, 2, 1.0, 637, 2, -1.0
*EQUATION
2
363, 3, 1.0, 637, 3, -1.0
*EQUATION
2
364, 1, 1.0, 880, 1, -1.0
*EQUATION
2
364, 2, 1.0, 880, 2, -1.0
*EQUATION
2
364, 3, 1.0, 880, 3, -1.0
*EQUATION
2
365, 1, 1.0, 609, 1, -1.0
*EQUATION
2
365, 2, 1.0, 609, 2, -1.0
*EQUATION
2
365, 3, 1.0, 609, 3, -1.0
*EQUATION
2
366, 1, 1.0, 922, 1, -1.0
*EQUATION
2
366, 2, 1.0, 922, 2, -1.0
*EQUATION
2
366, 3, 1.0, 922, 3, -1.0
*EQUATION
2
367, 1, 1.0, 895, 1, -1.0
*EQUATION
2
367, 2, 1.0, 895, 2, -1.0
*EQUATION
2
367, 3, 1.0, 895, 3, -1.0
*EQUATION
2
368, 1, 1.0, 599, 1, -1.0
*EQUATION
2
368, 2, 1.0, 599, 2, -1.0
*EQUATION
2
368, 3, 1.0, 599, 3, -1.0
*EQUATION
2
369, 1, 1.0, 853, 1, -1.0
*EQUATION
2
369, 2, 1.0, 853, 2, -1.0
*EQUATION
2
369, 3, 1.0, 853, 3, -1.0
*EQUATION
2
371, 1, 1.0, 630, 1, -1.0
*EQUATION
2
371, 2, 1.0, 630, 2, -1.0
*EQUATION
2
371, 3, 1.0, 630, 3, -1.0
*EQUATION
2
372, 1, 1.0, 870, 1, -1.0
*EQUATION
2
372, 2, 1.0, 870, 2, -1.0
*EQUATION
2
372, 3, 1.0, 870, 3, -1.0
*EQUATION
2
373, 1, 1.0, 483, 1, -1.0
*EQUATION
2
373, 2, 1.0, 483, 2, -1.0
*EQUATION
2
373, 3, 1.0, 483, 3, -1.0
*EQUATION
2
374, 1, 1.0, 607, 1, -1.0
*EQUATION
2
374, 2, 1.0, 607, 2, -1.0
*EQUATION
2
374, 3, 1.0, 607, 3, -1.0
*EQUATION
2
375, 1, 1.0, 590, 1, -1.0
*EQUATION
2
375, 2, 1.0, 590, 2, -1.0
*EQUATION
2
375, 3, 1.0, 590, 3, -1.0
*EQUATION
2
376, 1, 1.0, 573, 1, -1.0
*EQUATION
2
376, 2, 1.0, 573, 2, -1.0
*EQUATION
2
376, 3, 1.0, 573, 3, -1.0
*EQUATION
2
377, 1, 1.0, 589, 1, -1.0
*EQUATION
2
377, 2, 1.0, 589, 2, -1.0
*EQUATION
2
377, 3, 1.0, 589, 3, -1.0
*EQUATION
2
378, 1, 1.0, 811, 1, -1.0
*EQUATION
2
378, 2, 1.0, 811, 2, -1.0
*EQUATION
2
378, 3, 1.0, 811, 3, -1.0
*EQUATION
2
379, 1, 1.0, 885, 1, -1.0
*EQUATION
2
379, 2, 1.0, 885, 2, -1.0
*EQUATION
2
379, 3, 1.0, 885, 3, -1.0
*EQUATION
2
380, 1, 1.0, 867, 1, -1.0
*EQUATION
2
380, 2, 1.0, 867, 2, -1.0
*EQUATION
2
380, 3, 1.0, 867, 3, -1.0
*EQUATION
2
381, 1, 1.0, 793, 1, -1.0
*EQUATION
2
381, 2, 1.0, 793, 2, -1.0
*EQUATION
2
381, 3, 1.0, 793, 3, -1.0
*EQUATION
2
382, 1, 1.0, 587, 1, -1.0
*EQUATION
2
382, 2, 1.0, 587, 2, -1.0
*EQUATION
2
382, 3, 1.0, 587, 3, -1.0
*EQUATION
2
383, 1, 1.0, 565, 1, -1.0
*EQUATION
2
383, 2, 1.0, 565, 2, -1.0
*EQUATION
2
383, 3, 1.0, 565, 3, -1.0
*EQUATION
2
384, 1, 1.0, 556, 1, -1.0
*EQUATION
2
384, 2, 1.0, 556, 2, -1.0
*EQUATION
2
384, 3, 1.0, 556, 3, -1.0
*EQUATION
2
385, 1, 1.0, 957, 1, -1.0
*EQUATION
2
385, 2, 1.0, 957, 2, -1.0
*EQUATION
2
385, 3, 1.0, 957, 3, -1.0
*EQUATION
2
386, 1, 1.0, 932, 1, -1.0
*EQUATION
2
386, 2, 1.0, 932, 2, -1.0
*EQUATION
2
386, 3, 1.0, 932, 3, -1.0
*EQUATION
2
387, 1, 1.0, 557, 1, -1.0
*EQUATION
2
387, 2, 1.0, 557, 2, -1.0
*EQUATION
2
387, 3, 1.0, 557, 3, -1.0
*EQUATION
2
388, 1, 1.0, 951, 1, -1.0
*EQUATION
2
388, 2, 1.0, 951, 2, -1.0
*EQUATION
2
388, 3, 1.0, 951, 3, -1.0
*EQUATION
2
389, 1, 1.0, 574, 1, -1.0
*EQUATION
2
389, 2, 1.0, 574, 2, -1.0
*EQUATION
2
389, 3, 1.0, 574, 3, -1.0
*EQUATION
2
390, 1, 1.0, 555, 1, -1.0
*EQUATION
2
390, 2, 1.0, 555, 2, -1.0
*EQUATION
2
390, 3, 1.0, 555, 3, -1.0
*EQUATION
2
391, 1, 1.0, 937, 1, -1.0
*EQUATION
2
391, 2, 1.0, 937, 2, -1.0
*EQUATION
2
391, 3, 1.0, 937, 3, -1.0
*EQUATION
2
392, 1, 1.0, 592, 1, -1.0
*EQUATION
2
392, 2, 1.0, 592, 2, -1.0
*EQUATION
2
392, 3, 1.0, 592, 3, -1.0
*EQUATION
2
393, 1, 1.0, 624, 1, -1.0
*EQUATION
2
393, 2, 1.0, 624, 2, -1.0
*EQUATION
2
393, 3, 1.0, 624, 3, -1.0
*EQUATION
2
394, 1, 1.0, 902, 1, -1.0
*EQUATION
2
394, 2, 1.0, 902, 2, -1.0
*EQUATION
2
394, 3, 1.0, 902, 3, -1.0
*EQUATION
2
395, 1, 1.0, 852, 1, -1.0
*EQUATION
2
395, 2, 1.0, 852, 2, -1.0
*EQUATION
2
395, 3, 1.0, 852, 3, -1.0
*EQUATION
2
396, 1, 1.0, 875, 1, -1.0
*EQUATION
2
396, 2, 1.0, 875, 2, -1.0
*EQUATION
2
396, 3, 1.0, 875, 3, -1.0
*EQUATION
2
397, 1, 1.0, 474, 1, -1.0
*EQUATION
2
397, 2, 1.0, 474, 2, -1.0
*EQUATION
2
397, 3, 1.0, 474, 3, -1.0
*EQUATION
2
398, 1, 1.0, 906, 1, -1.0
*EQUATION
2
398, 2, 1.0, 906, 2, -1.0
*EQUATION
2
398, 3, 1.0, 906, 3, -1.0
*EQUATION
2
399, 1, 1.0, 889, 1, -1.0
*EQUATION
2
399, 2, 1.0, 889, 2, -1.0
*EQUATION
2
399, 3, 1.0, 889, 3, -1.0
*EQUATION
2
400, 1, 1.0, 475, 1, -1.0
*EQUATION
2
400, 2, 1.0, 475, 2, -1.0
*EQUATION
2
400, 3, 1.0, 475, 3, -1.0
*EQUATION
2
402, 1, 1.0, 524, 1, -1.0
*EQUATION
2
402, 2, 1.0, 524, 2, -1.0
*EQUATION
2
402, 3, 1.0, 524, 3, -1.0
*EQUATION
2
403, 1, 1.0, 540, 1, -1.0
*EQUATION
2
403, 2, 1.0, 540, 2, -1.0
*EQUATION
2
403, 3, 1.0, 540, 3, -1.0
*EQUATION
2
404, 1, 1.0, 543, 1, -1.0
*EQUATION
2
404, 2, 1.0, 543, 2, -1.0
*EQUATION
2
404, 3, 1.0, 543, 3, -1.0
*EQUATION
2
405, 1, 1.0, 517, 1, -1.0
*EQUATION
2
405, 2, 1.0, 517, 2, -1.0
*EQUATION
2
405, 3, 1.0, 517, 3, -1.0
*EQUATION
2
406, 1, 1.0, 531, 1, -1.0
*EQUATION
2
406, 2, 1.0, 531, 2, -1.0
*EQUATION
2
406, 3, 1.0, 531, 3, -1.0
*EQUATION
2
407, 1, 1.0, 928, 1, -1.0
*EQUATION
2
407, 2, 1.0, 928, 2, -1.0
*EQUATION
2
407, 3, 1.0, 928, 3, -1.0
*EQUATION
2
408, 1, 1.0, 516, 1, -1.0
*EQUATION
2
408, 2, 1.0, 516, 2, -1.0
*EQUATION
2
408, 3, 1.0, 516, 3, -1.0
*EQUATION
2
409, 1, 1.0, 860, 1, -1.0
*EQUATION
2
409, 2, 1.0, 860, 2, -1.0
*EQUATION
2
409, 3, 1.0, 860, 3, -1.0
*EQUATION
2
410, 1, 1.0, 491, 1, -1.0
*EQUATION
2
410, 2, 1.0, 491, 2, -1.0
*EQUATION
2
410, 3, 1.0, 491, 3, -1.0
*EQUATION
2
411, 1, 1.0, 479, 1, -1.0
*EQUATION
2
411, 2, 1.0, 479, 2, -1.0
*EQUATION
2
411, 3, 1.0, 479, 3, -1.0
*EQUATION
2
412, 1, 1.0, 850, 1, -1.0
*EQUATION
2
412, 2, 1.0, 850, 2, -1.0
*EQUATION
2
412, 3, 1.0, 850, 3, -1.0
*EQUATION
2
413, 1, 1.0, 493, 1, -1.0
*EQUATION
2
413, 2, 1.0, 493, 2, -1.0
*EQUATION
2
413, 3, 1.0, 493, 3, -1.0
*EQUATION
2
414, 1, 1.0, 525, 1, -1.0
*EQUATION
2
414, 2, 1.0, 525, 2, -1.0
*EQUATION
2
414, 3, 1.0, 525, 3, -1.0
*EQUATION
2
415, 1, 1.0, 490, 1, -1.0
*EQUATION
2
415, 2, 1.0, 490, 2, -1.0
*EQUATION
2
415, 3, 1.0, 490, 3, -1.0
*EQUATION
2
416, 1, 1.0, 881, 1, -1.0
*EQUATION
2
416, 2, 1.0, 881, 2, -1.0
*EQUATION
2
416, 3, 1.0, 881, 3, -1.0
*EQUATION
2
417, 1, 1.0, 568, 1, -1.0
*EQUATION
2
417, 2, 1.0, 568, 2, -1.0
*EQUATION
2
417, 3, 1.0, 568, 3, -1.0
*EQUATION
2
418, 1, 1.0, 553, 1, -1.0
*EQUATION
2
418, 2, 1.0, 553, 2, -1.0
*EQUATION
2
418, 3, 1.0, 553, 3, -1.0
*EQUATION
2
419, 1, 1.0, 878, 1, -1.0
*EQUATION
2
419, 2, 1.0, 878, 2, -1.0
*EQUATION
2
419, 3, 1.0, 878, 3, -1.0
*EQUATION
2
420, 1, 1.0, 916, 1, -1.0
*EQUATION
2
420, 2, 1.0, 916, 2, -1.0
*EQUATION
2
420, 3, 1.0, 916, 3, -1.0
*EQUATION
2
421, 1, 1.0, 534, 1, -1.0
*EQUATION
2
421, 2, 1.0, 534, 2, -1.0
*EQUATION
2
421, 3, 1.0, 534, 3, -1.0
*EQUATION
2
422, 1, 1.0, 541, 1, -1.0
*EQUATION
2
422, 2, 1.0, 541, 2, -1.0
*EQUATION
2
422, 3, 1.0, 541, 3, -1.0
*EQUATION
2
423, 1, 1.0, 558, 1, -1.0
*EQUATION
2
423, 2, 1.0, 558, 2, -1.0
*EQUATION
2
423, 3, 1.0, 558, 3, -1.0
*EQUATION
2
424, 1, 1.0, 909, 1, -1.0
*EQUATION
2
424, 2, 1.0, 909, 2, -1.0
*EQUATION
2
424, 3, 1.0, 909, 3, -1.0
*EQUATION
2
425, 1, 1.0, 834, 1, -1.0
*EQUATION
2
425, 2, 1.0, 834, 2, -1.0
*EQUATION
2
425, 3, 1.0, 834, 3, -1.0
*EQUATION
2
426, 1, 1.0, 864, 1, -1.0
*EQUATION
2
426, 2, 1.0, 864, 2, -1.0
*EQUATION
2
426, 3, 1.0, 864, 3, -1.0
*EQUATION
2
427, 1, 1.0, 820, 1, -1.0
*EQUATION
2
427, 2, 1.0, 820, 2, -1.0
*EQUATION
2
427, 3, 1.0, 820, 3, -1.0
*EQUATION
2
428, 1, 1.0, 841, 1, -1.0
*EQUATION
2
428, 2, 1.0, 841, 2, -1.0
*EQUATION
2
428, 3, 1.0, 841, 3, -1.0
*EQUATION
2
429, 1, 1.0, 515, 1, -1.0
*EQUATION
2
429, 2, 1.0, 515, 2, -1.0
*EQUATION
2
429, 3, 1.0, 515, 3, -1.0
*EQUATION
2
430, 1, 1.0, 796, 1, -1.0
*EQUATION
2
430, 2, 1.0, 796, 2, -1.0
*EQUATION
2
430, 3, 1.0, 796, 3, -1.0
*EQUATION
2
431, 1, 1.0, 786, 1, -1.0
*EQUATION
2
431, 2, 1.0, 786, 2, -1.0
*EQUATION
2
431, 3, 1.0, 786, 3, -1.0
*EQUATION
2
433, 1, 1.0, 472, 1, -1.0
*EQUATION
2
433, 2, 1.0, 472, 2, -1.0
*EQUATION
2
433, 3, 1.0, 472, 3, -1.0
*EQUATION
2
434, 1, 1.0, 844, 1, -1.0
*EQUATION
2
434, 2, 1.0, 844, 2, -1.0
*EQUATION
2
434, 3, 1.0, 844, 3, -1.0
*EQUATION
2
435, 1, 1.0, 507, 1, -1.0
*EQUATION
2
435, 2, 1.0, 507, 2, -1.0
*EQUATION
2
435, 3, 1.0, 507, 3, -1.0
*EQUATION
2
436, 1, 1.0, 478, 1, -1.0
*EQUATION
2
436, 2, 1.0, 478, 2, -1.0
*EQUATION
2
436, 3, 1.0, 478, 3, -1.0
*EQUATION
2
437, 1, 1.0, 499, 1, -1.0
*EQUATION
2
437, 2, 1.0, 499, 2, -1.0
*EQUATION
2
437, 3, 1.0, 499, 3, -1.0
*EQUATION
2
438, 1, 1.0, 473, 1, -1.0
*EQUATION
2
438, 2, 1.0, 473, 2, -1.0
*EQUATION
2
438, 3, 1.0, 473, 3, -1.0
*EQUATION
2
439, 1, 1.0, 503, 1, -1.0
*EQUATION
2
439, 2, 1.0, 503, 2, -1.0
*EQUATION
2
439, 3, 1.0, 503, 3, -1.0
*EQUATION
2
440, 1, 1.0, 789, 1, -1.0
*EQUATION
2
440, 2, 1.0, 789, 2, -1.0
*EQUATION
2
440, 3, 1.0, 789, 3, -1.0
*EQUATION
2
441, 1, 1.0, 764, 1, -1.0
*EQUATION
2
441, 2, 1.0, 764, 2, -1.0
*EQUATION
2
441, 3, 1.0, 764, 3, -1.0
*EQUATION
2
442, 1, 1.0, 468, 1, -1.0
*EQUATION
2
442, 2, 1.0, 468, 2, -1.0
*EQUATION
2
442, 3, 1.0, 468, 3, -1.0
*EQUATION
2
443, 1, 1.0, 482, 1, -1.0
*EQUATION
2
443, 2, 1.0, 482, 2, -1.0
*EQUATION
2
443, 3, 1.0, 482, 3, -1.0
*EQUATION
2
444, 1, 1.0, 643, 1, -1.0
*EQUATION
2
444, 2, 1.0, 643, 2, -1.0
*EQUATION
2
444, 3, 1.0, 643, 3, -1.0
*EQUATION
2
445, 1, 1.0, 107, 1, -1.0
*EQUATION
2
445, 2, 1.0, 107, 2, -1.0
*EQUATION
2
445, 3, 1.0, 107, 3, -1.0
*EQUATION
2
446, 1, 1.0, 488, 1, -1.0
*EQUATION
2
446, 2, 1.0, 488, 2, -1.0
*EQUATION
2
446, 3, 1.0, 488, 3, -1.0
*EQUATION
2
447, 1, 1.0, 753, 1, -1.0
*EQUATION
2
447, 2, 1.0, 753, 2, -1.0
*EQUATION
2
447, 3, 1.0, 753, 3, -1.0
*EQUATION
2
448, 1, 1.0, 795, 1, -1.0
*EQUATION
2
448, 2, 1.0, 795, 2, -1.0
*EQUATION
2
448, 3, 1.0, 795, 3, -1.0
*EQUATION
2
449, 1, 1.0, 783, 1, -1.0
*EQUATION
2
449, 2, 1.0, 783, 2, -1.0
*EQUATION
2
449, 3, 1.0, 783, 3, -1.0
*EQUATION
2
450, 1, 1.0, 464, 1, -1.0
*EQUATION
2
450, 2, 1.0, 464, 2, -1.0
*EQUATION
2
450, 3, 1.0, 464, 3, -1.0
*EQUATION
2
451, 1, 1.0, 485, 1, -1.0
*EQUATION
2
451, 2, 1.0, 485, 2, -1.0
*EQUATION
2
451, 3, 1.0, 485, 3, -1.0
*EQUATION
2
452, 1, 1.0, 514, 1, -1.0
*EQUATION
2
452, 2, 1.0, 514, 2, -1.0
*EQUATION
2
452, 3, 1.0, 514, 3, -1.0
*EQUATION
2
453, 1, 1.0, 536, 1, -1.0
*EQUATION
2
453, 2, 1.0, 536, 2, -1.0
*EQUATION
2
453, 3, 1.0, 536, 3, -1.0
*EQUATION
2
454, 1, 1.0, 506, 1, -1.0
*EQUATION
2
454, 2, 1.0, 506, 2, -1.0
*EQUATION
2
454, 3, 1.0, 506, 3, -1.0
*EQUATION
2
455, 1, 1.0, 758, 1, -1.0
*EQUATION
2
455, 2, 1.0, 758, 2, -1.0
*EQUATION
2
455, 3, 1.0, 758, 3, -1.0
*EQUATION
2
456, 1, 1.0, 183, 1, -1.0
*EQUATION
2
456, 2, 1.0, 183, 2, -1.0
*EQUATION
2
456, 3, 1.0, 183, 3, -1.0
*EQUATION
2
457, 1, 1.0, 185, 1, -1.0
*EQUATION
2
457, 2, 1.0, 185, 2, -1.0
*EQUATION
2
457, 3, 1.0, 185, 3, -1.0
*EQUATION
2
458, 1, 1.0, 105, 1, -1.0
*EQUATION
2
458, 2, 1.0, 105, 2, -1.0
*EQUATION
2
458, 3, 1.0, 105, 3, -1.0
*EQUATION
2
459, 1, 1.0, 108, 1, -1.0
*EQUATION
2
459, 2, 1.0, 108, 2, -1.0
*EQUATION
2
459, 3, 1.0, 108, 3, -1.0
*EQUATION
2
460, 1, 1.0, 104, 1, -1.0
*EQUATION
2
460, 2, 1.0, 104, 2, -1.0
*EQUATION
2
460, 3, 1.0, 104, 3, -1.0
**
** ═══════════════════════════════════════════
** BOUNDARY CONDITIONS AND LOADS
** ═══════════════════════════════════════════
**

*NSET, NSET=NSET_ALL_NODES, GENERATE
1, 1127, 1
*ELSET, ELSET=EALL_ELEMS, GENERATE
1, 9999999, 1
*STEP
*STATIC
1., 1.
**
*BOUNDARY
NSET_ROOT, 1, 6
**
*CLOAD
105, 3, -1000.0
**
*NODE FILE
U
*EL FILE
S
**
*NODE PRINT, NSET=NALL
U
*EL PRINT, ELSET=WingSkin
S
**
*NODE PRINT, NSET=NSET_ALL_NODES
U
*EL PRINT, ELSET=EALL_ELEMS
S
*END STEP
