*Heading
 scratch/test_triangles/opt_iter_001_mesh.inp
*NODE
1, 0.2589, 0, 4.165971332283e-18
2, -0.0002743444748562, 0, 0.001460512500794
3, -0.0002743444748562, 0.95, 0.001460512500794
4, 0.2589, 0.95, 4.165971332283e-18
5, -0.0002743444748562, 0, 0.001460512500794
6, 0.2589, 0, 4.165971332283e-18
7, 0.2589, 0.95, 4.165971332283e-18
8, -0.0002743444748562, 0.95, 0.001460512500794
9, 0.09709, 0, 0.03585795002859
10, 0.09709, 0, 0.005381739972117
11, 0.09709, 0.019, 0.03585795002859
12, 0.09709, 0.019, 0.005381739972118
13, 0.038855, 0.019, 0.0271917625742
14, 0.038855, 0.019, -0.001276706657726
15, 0.168245, 0.019, 0.02793608053413
16, 0.168245, 0.019, 0.006518852882011
17, 0.09709, 0.145255, 0.03585795002859
18, 0.09709, 0.145255, 0.005381739972118
19, 0.038855, 0.145255, 0.0271917625742
20, 0.038855, 0.145255, -0.001276706657726
** ... 1230 like lines cut
******* E L E M E N T S *************
*ELEMENT, type=S4, ELSET=Surface1
1, 752, 478, 601, 595
2, 688, 689, 742, 686
3, 606, 472, 609, 608
4, 765, 684, 682, 716
5, 652, 576, 700, 654
6, 683, 682, 684, 465
7, 572, 680, 679, 681
8, 734, 558, 736, 615
9, 646, 624, 704, 556
10, 560, 729, 636, 731
11, 626, 702, 480, 628
12, 591, 727, 471, 706
13, 760, 743, 722, 697
14, 733, 650, 735, 561
15, 624, 725, 559, 704
16, 651, 643, 652, 483
17, 697, 757, 692, 760
18, 84, 685, 610, 83
19, 735, 739, 664, 561
20, 681, 679, 677, 575
** ... 329 like lines cut
*ELEMENT, type=S4, ELSET=Surface2
350, 971, 970, 973, 858
351, 1046, 1012, 1025, 1047
352, 791, 941, 896, 998
353, 879, 957, 955, 958
354, 903, 791, 998, 895
355, 895, 1031, 803, 903
356, 996, 777, 991, 993
357, 929, 935, 786, 1008
358, 954, 953, 955, 780
359, 990, 991, 777, 1009
360, 934, 994, 778, 936
361, 970, 969, 1044, 973
362, 940, 999, 795, 995
363, 982, 1058, 873, 1053
364, 958, 955, 953, 1043
365, 941, 774, 1042, 896
366, 776, 996, 993, 1052
367, 1009, 795, 999, 990
368, 1039, 921, 1062, 796
369, 822, 820, 973, 1044
** ... 338 like lines cut
*ELEMENT, type=S4, ELSET=Surface3
708, 12, 10, 221, 1087
709, 9, 11, 222, 1086
710, 12, 1087, 1086, 222
711, 9, 1086, 1087, 221
*ELEMENT, type=S4, ELSET=Surface4
712, 1088, 1090, 225, 224
713, 1089, 226, 14, 227
714, 226, 1089, 223, 13
715, 225, 1090, 222, 11
716, 228, 229, 1092, 1088
717, 1089, 1091, 224, 223
718, 222, 1092, 229, 12
719, 227, 228, 1088, 1093
720, 1088, 1092, 222, 1090
721, 224, 1091, 1093, 1088
722, 227, 1093, 1091, 1089
*ELEMENT, type=S4, ELSET=Surface5
723, 1098, 235, 12, 222
724, 231, 1094, 1098, 230
725, 234, 1097, 233, 15
726, 231, 232, 1096, 1095
727, 1098, 1094, 236, 235
728, 231, 1095, 236, 1094
729, 236, 1095, 1096, 237
730, 230, 1098, 222, 11
731, 237, 1096, 1097, 238
732, 232, 233, 1097, 1096
733, 238, 1097, 234, 16
*ELEMENT, type=S4, ELSET=Surface6
734, 250, 249, 1103, 1101
735, 252, 251, 1102, 1104
736, 241, 1103, 1099, 240
737, 243, 1102, 1101, 242
738, 244, 1100, 252, 1104
739, 248, 247, 1105, 1099
740, 244, 245, 1106, 1100
741, 1101, 1102, 251, 250
742, 1099, 1103, 249, 248
743, 1102, 243, 244, 1104
744, 1103, 241, 242, 1101
745, 222, 1105, 247, 12
746, 246, 1106, 245, 17
747, 240, 1099, 1107, 239
748, 252, 1100, 1108, 253
749, 239, 1107, 222, 11
750, 253, 1108, 246, 18
751, 1099, 1105, 222, 1107
752, 1100, 1106, 246, 1108
*ELEMENT, type=S4, ELSET=Surface7
753, 1109, 1111, 256, 255
754, 1110, 257, 20, 258
755, 257, 1110, 254, 19
756, 256, 1111, 246, 17
757, 259, 260, 1113, 1109
758, 1110, 1112, 255, 254
759, 246, 1113, 260, 18
760, 258, 259, 1109, 1114
761, 1109, 1113, 246, 1111
762, 255, 1112, 1114, 1109
763, 258, 1114, 1112, 1110
*ELEMENT, type=S4, ELSET=Surface8
764, 1119, 266, 18, 246
765, 262, 1115, 1119, 261
766, 265, 1118, 264, 21
767, 262, 263, 1117, 1116
768, 1119, 1115, 267, 266
769, 262, 1116, 267, 1115
770, 267, 1116, 1117, 268
771, 261, 1119, 246, 17
772, 268, 1117, 1118, 269
773, 263, 264, 1118, 1117
774, 269, 1118, 265, 22
*ELEMENT, type=S4, ELSET=Surface9
775, 281, 280, 1123, 1121
776, 283, 282, 1125, 1122
777, 272, 1123, 1120, 271
778, 274, 1125, 1121, 273
779, 283, 1122, 275, 1124
780, 279, 278, 1126, 1120
781, 275, 276, 1127, 1124
782, 1120, 1123, 280, 279
783, 1121, 1125, 282, 281
784, 1123, 272, 273, 1121
785, 1125, 274, 275, 1122
786, 246, 1126, 278, 18
787, 277, 1127, 276, 23
788, 283, 1124, 1128, 284
789, 271, 1120, 1129, 270
790, 284, 1128, 277, 24
791, 270, 1129, 246, 17
792, 1120, 1126, 246, 1129
793, 1124, 1127, 277, 1128
*ELEMENT, type=S4, ELSET=Surface10
794, 1130, 1132, 287, 286
795, 1131, 288, 26, 289
796, 288, 1131, 285, 25
797, 287, 1132, 277, 23
798, 290, 291, 1134, 1130
799, 1131, 1133, 286, 285
800, 277, 1134, 291, 24
801, 289, 290, 1130, 1135
802, 1130, 1134, 277, 1132
803, 286, 1133, 1135, 1130
804, 289, 1135, 1133, 1131
*ELEMENT, type=S4, ELSET=Surface11
805, 1140, 297, 24, 277
806, 293, 1136, 1140, 292
807, 296, 1139, 295, 27
808, 293, 294, 1138, 1137
809, 1140, 1136, 298, 297
810, 293, 1137, 298, 1136
811, 298, 1137, 1138, 299
812, 292, 1140, 277, 23
813, 299, 1138, 1139, 300
814, 294, 295, 1139, 1138
815, 300, 1139, 296, 28
*ELEMENT, type=S4, ELSET=Surface12
816, 304, 1143, 1145, 303
817, 306, 1144, 1146, 305
818, 314, 1144, 306, 1142
819, 313, 312, 1143, 1146
820, 311, 310, 1141, 1145
821, 302, 1141, 1147, 301
822, 314, 1142, 1148, 315
823, 1141, 302, 303, 1145
824, 1143, 304, 305, 1146
825, 1145, 1143, 312, 311
826, 1146, 1144, 314, 313
827, 277, 23, 301, 1147
828, 308, 30, 315, 1148
829, 310, 309, 1150, 1141
830, 306, 307, 1149, 1142
831, 309, 24, 277, 1150
832, 307, 29, 308, 1149
833, 1141, 1150, 277, 1147
834, 1142, 1149, 308, 1148
*ELEMENT, type=S4, ELSET=Surface13
835, 1151, 1153, 318, 317
836, 1152, 319, 32, 320
837, 319, 1152, 316, 31
838, 318, 1153, 308, 29
839, 321, 322, 1155, 1151
840, 1152, 1154, 317, 316
841, 308, 1155, 322, 30
842, 320, 321, 1151, 1156
843, 1151, 1155, 308, 1153
844, 317, 1154, 1156, 1151
845, 320, 1156, 1154, 1152
*ELEMENT, type=S4, ELSET=Surface14
846, 1161, 328, 30, 308
847, 324, 1157, 1161, 323
848, 327, 1160, 326, 33
849, 324, 325, 1159, 1158
850, 1161, 1157, 329, 328
851, 324, 1158, 329, 1157
852, 329, 1158, 1159, 330
853, 323, 1161, 308, 29
854, 330, 1159, 1160, 331
855, 325, 326, 1160, 1159
856, 331, 1160, 327, 34
*ELEMENT, type=S4, ELSET=Surface15
857, 337, 1165, 1166, 336
858, 335, 1164, 1167, 334
859, 345, 1165, 337, 1162
860, 342, 341, 1163, 1167
861, 344, 343, 1164, 1166
862, 345, 1162, 1169, 346
863, 333, 1163, 1168, 332
864, 1163, 333, 334, 1167
865, 1164, 335, 336, 1166
866, 1166, 1165, 345, 344
867, 1167, 1164, 343, 342
868, 308, 29, 332, 1168
869, 339, 36, 346, 1169
870, 341, 340, 1170, 1163
871, 337, 338, 1171, 1162
872, 338, 35, 339, 1171
873, 340, 30, 308, 1170
874, 1162, 1171, 339, 1169
875, 1163, 1170, 308, 1168
*ELEMENT, type=S4, ELSET=Surface16
876, 1172, 1174, 349, 348
877, 1173, 350, 38, 351
878, 350, 1173, 347, 37
879, 349, 1174, 339, 35
880, 352, 353, 1176, 1172
881, 1173, 1175, 348, 347
882, 339, 1176, 353, 36
883, 351, 352, 1172, 1177
884, 1172, 1176, 339, 1174
885, 348, 1175, 1177, 1172
886, 351, 1177, 1175, 1173
*ELEMENT, type=S4, ELSET=Surface17
887, 1182, 359, 36, 339
888, 355, 1178, 1182, 354
889, 358, 1181, 357, 39
890, 355, 356, 1180, 1179
891, 1182, 1178, 360, 359
892, 355, 1179, 360, 1178
893, 360, 1179, 1180, 361
894, 354, 1182, 339, 35
895, 361, 1180, 1181, 362
896, 356, 357, 1181, 1180
897, 362, 1181, 358, 40
*ELEMENT, type=S4, ELSET=Surface18
898, 374, 1187, 1188, 375
899, 365, 366, 1187, 1185
900, 367, 368, 1184, 1188
901, 372, 1186, 1185, 373
902, 364, 1186, 372, 1183
903, 364, 1183, 1190, 363
904, 376, 1184, 1189, 377
905, 1185, 1186, 364, 365
906, 1184, 376, 375, 1188
907, 1187, 374, 373, 1185
908, 1188, 1187, 366, 367
909, 370, 42, 377, 1189
910, 339, 35, 363, 1190
911, 372, 371, 1192, 1183
912, 368, 369, 1191, 1184
913, 371, 36, 339, 1192
914, 369, 41, 370, 1191
915, 1183, 1192, 339, 1190
916, 1184, 1191, 370, 1189
*ELEMENT, type=S4, ELSET=Surface19
917, 1193, 1195, 380, 379
918, 1194, 381, 44, 382
919, 381, 1194, 378, 43
920, 380, 1195, 370, 41
921, 383, 384, 1197, 1193
922, 1194, 1196, 379, 378
923, 370, 1197, 384, 42
924, 382, 383, 1193, 1198
925, 1193, 1197, 370, 1195
926, 379, 1196, 1198, 1193
927, 382, 1198, 1196, 1194
*ELEMENT, type=S4, ELSET=Surface20
928, 1203, 390, 42, 370
929, 386, 1199, 1203, 385
930, 389, 1202, 388, 45
931, 386, 387, 1201, 1200
932, 1203, 1199, 391, 390
933, 386, 1200, 391, 1199
934, 391, 1200, 1201, 392
935, 385, 1203, 370, 41
936, 392, 1201, 1202, 393
937, 387, 388, 1202, 1201
938, 393, 1202, 389, 46
*ELEMENT, type=S4, ELSET=Surface21
939, 405, 404, 1208, 1206
940, 1206, 1209, 406, 405
941, 407, 1207, 399, 1205
942, 399, 1207, 1209, 398
943, 404, 403, 1204, 1208
944, 395, 1204, 1210, 394
945, 407, 1205, 1211, 408
946, 1204, 395, 396, 1208
947, 398, 1209, 1206, 397
948, 1209, 1207, 407, 406
949, 1208, 396, 397, 1206
950, 370, 41, 394, 1210
951, 401, 48, 408, 1211
952, 399, 400, 1213, 1205
953, 403, 402, 1212, 1204
954, 402, 42, 370, 1212
955, 400, 47, 401, 1213
956, 1204, 1212, 370, 1210
957, 1205, 1213, 401, 1211
*ELEMENT, type=S4, ELSET=Surface22
958, 1214, 1216, 411, 410
959, 1215, 412, 50, 413
960, 412, 1215, 409, 49
961, 411, 1216, 401, 47
962, 414, 415, 1218, 1214
963, 1215, 1217, 410, 409
964, 401, 1218, 415, 48
965, 413, 414, 1214, 1219
966, 1214, 1218, 401, 1216
967, 410, 1217, 1219, 1214
968, 413, 1219, 1217, 1215
*ELEMENT, type=S4, ELSET=Surface23
969, 1224, 421, 48, 401
970, 417, 1220, 1224, 416
971, 420, 1223, 419, 51
972, 417, 418, 1222, 1221
973, 1224, 1220, 422, 421
974, 417, 1221, 422, 1220
975, 422, 1221, 1222, 423
976, 416, 1224, 401, 47
977, 423, 1222, 1223, 424
978, 418, 419, 1223, 1222
979, 424, 1223, 420, 52
*ELEMENT, type=S4, ELSET=Surface24
980, 434, 1225, 1228, 435
981, 436, 1227, 1230, 437
982, 434, 1229, 426, 1225
983, 427, 428, 1227, 1228
984, 429, 430, 1226, 1230
985, 426, 1229, 1231, 425
986, 438, 1226, 1232, 439
987, 1227, 436, 435, 1228
988, 1226, 438, 437, 1230
989, 1230, 1227, 428, 429
990, 1228, 1225, 426, 427
991, 401, 47, 425, 1231
992, 432, 54, 439, 1232
993, 430, 431, 1234, 1226
994, 434, 433, 1233, 1229
995, 433, 48, 401, 1233
996, 431, 53, 432, 1234
997, 1229, 1233, 401, 1231
998, 1226, 1234, 432, 1232
*ELEMENT, type=S4, ELSET=Surface25
999, 1235, 1237, 442, 441
1000, 1236, 443, 56, 444
1001, 443, 1236, 440, 55
1002, 442, 1237, 432, 53
1003, 445, 446, 1239, 1235
1004, 1236, 1238, 441, 440
1005, 432, 1239, 446, 54
1006, 444, 445, 1235, 1240
1007, 1235, 1239, 432, 1237
1008, 441, 1238, 1240, 1235
1009, 444, 1240, 1238, 1236
*ELEMENT, type=S4, ELSET=Surface26
1010, 1245, 452, 54, 432
1011, 448, 1241, 1245, 447
1012, 451, 1244, 450, 57
1013, 448, 449, 1243, 1242
1014, 1245, 1241, 453, 452
1015, 448, 1242, 453, 1241
1016, 453, 1242, 1243, 454
1017, 447, 1245, 432, 53
1018, 454, 1243, 1244, 455
1019, 449, 450, 1244, 1243
1020, 455, 1244, 451, 58
*ELEMENT, type=S4, ELSET=Surface27
1021, 457, 1246, 1248, 456
1022, 1246, 457, 59, 1247
1023, 432, 53, 456, 1248
1024, 460, 459, 1250, 1246
1025, 460, 1246, 1247, 1249
1026, 460, 1249, 458, 60
1027, 459, 54, 432, 1250
1028, 1246, 1250, 432, 1248
1029, 59, 458, 1249, 1247
*ELSET,ELSET=WingSkin
1, 2, 3, 4, 5, 6, 7, 8, 9, 10, 
11, 12, 13, 14, 15, 16, 17, 18, 19, 20, 
21, 22, 23, 24, 25, 26, 27, 28, 29, 30, 
31, 32, 33, 34, 35, 36, 37, 38, 39, 40, 
41, 42, 43, 44, 45, 46, 47, 48, 49, 50, 
51, 52, 53, 54, 55, 56, 57, 58, 59, 60, 
61, 62, 63, 64, 65, 66, 67, 68, 69, 70, 
71, 72, 73, 74, 75, 76, 77, 78, 79, 80, 
81, 82, 83, 84, 85, 86, 87, 88, 89, 90, 
91, 92, 93, 94, 95, 96, 97, 98, 99, 100, 
101, 102, 103, 104, 105, 106, 107, 108, 109, 110, 
111, 112, 113, 114, 115, 116, 117, 118, 119, 120, 
121, 122, 123, 124, 125, 126, 127, 128, 129, 130, 
131, 132, 133, 134, 135, 136, 137, 138, 139, 140, 
141, 142, 143, 144, 145, 146, 147, 148, 149, 150, 
151, 152, 153, 154, 155, 156, 157, 158, 159, 160, 
161, 162, 163, 164, 165, 166, 167, 168, 169, 170, 
171, 172, 173, 174, 175, 176, 177, 178, 179, 180, 
181, 182, 183, 184, 185, 186, 187, 188, 189, 190, 
191, 192, 193, 194, 195, 196, 197, 198, 199, 200, 
** ... 51 like lines cut
*ELSET,ELSET=FractalWebs
708, 709, 710, 711, 712, 713, 714, 715, 716, 717, 
718, 719, 720, 721, 722, 723, 724, 725, 726, 727, 
728, 729, 730, 731, 732, 733, 734, 735, 736, 737, 
738, 739, 740, 741, 742, 743, 744, 745, 746, 747, 
748, 749, 750, 751, 752, 753, 754, 755, 756, 757, 
758, 759, 760, 761, 762, 763, 764, 765, 766, 767, 
768, 769, 770, 771, 772, 773, 774, 775, 776, 777, 
778, 779, 780, 781, 782, 783, 784, 785, 786, 787, 
788, 789, 790, 791, 792, 793, 794, 795, 796, 797, 
798, 799, 800, 801, 802, 803, 804, 805, 806, 807, 
808, 809, 810, 811, 812, 813, 814, 815, 816, 817, 
818, 819, 820, 821, 822, 823, 824, 825, 826, 827, 
828, 829, 830, 831, 832, 833, 834, 835, 836, 837, 
838, 839, 840, 841, 842, 843, 844, 845, 846, 847, 
848, 849, 850, 851, 852, 853, 854, 855, 856, 857, 
858, 859, 860, 861, 862, 863, 864, 865, 866, 867, 
868, 869, 870, 871, 872, 873, 874, 875, 876, 877, 
878, 879, 880, 881, 882, 883, 884, 885, 886, 887, 
888, 889, 890, 891, 892, 893, 894, 895, 896, 897, 
898, 899, 900, 901, 902, 903, 904, 905, 906, 907, 
** ... 13 like lines cut
*ELSET,ELSET=Web_0
708, 709, 710, 711, 
*ELSET,ELSET=Web_1
712, 713, 714, 715, 716, 717, 718, 719, 720, 721, 
722, 
*ELSET,ELSET=Web_2
723, 724, 725, 726, 727, 728, 729, 730, 731, 732, 
733, 
*ELSET,ELSET=Web_3
734, 735, 736, 737, 738, 739, 740, 741, 742, 743, 
744, 745, 746, 747, 748, 749, 750, 751, 752, 
*ELSET,ELSET=Web_4
753, 754, 755, 756, 757, 758, 759, 760, 761, 762, 
763, 
*ELSET,ELSET=Web_5
764, 765, 766, 767, 768, 769, 770, 771, 772, 773, 
774, 
*ELSET,ELSET=Web_6
775, 776, 777, 778, 779, 780, 781, 782, 783, 784, 
785, 786, 787, 788, 789, 790, 791, 792, 793, 
*ELSET,ELSET=Web_7
794, 795, 796, 797, 798, 799, 800, 801, 802, 803, 
804, 
*ELSET,ELSET=Web_8
805, 806, 807, 808, 809, 810, 811, 812, 813, 814, 
815, 
*ELSET,ELSET=Web_9
816, 817, 818, 819, 820, 821, 822, 823, 824, 825, 
826, 827, 828, 829, 830, 831, 832, 833, 834, 
*ELSET,ELSET=Web_10
835, 836, 837, 838, 839, 840, 841, 842, 843, 844, 
845, 
*ELSET,ELSET=Web_11
846, 847, 848, 849, 850, 851, 852, 853, 854, 855, 
856, 
*ELSET,ELSET=Web_12
857, 858, 859, 860, 861, 862, 863, 864, 865, 866, 
867, 868, 869, 870, 871, 872, 873, 874, 875, 
*ELSET,ELSET=Web_13
876, 877, 878, 879, 880, 881, 882, 883, 884, 885, 
886, 
*ELSET,ELSET=Web_14
887, 888, 889, 890, 891, 892, 893, 894, 895, 896, 
897, 
*ELSET,ELSET=Web_15
898, 899, 900, 901, 902, 903, 904, 905, 906, 907, 
908, 909, 910, 911, 912, 913, 914, 915, 916, 
*ELSET,ELSET=Web_16
917, 918, 919, 920, 921, 922, 923, 924, 925, 926, 
927, 
*ELSET,ELSET=Web_17
928, 929, 930, 931, 932, 933, 934, 935, 936, 937, 
938, 
*ELSET,ELSET=Web_18
939, 940, 941, 942, 943, 944, 945, 946, 947, 948, 
949, 950, 951, 952, 953, 954, 955, 956, 957, 
*ELSET,ELSET=Web_19
958, 959, 960, 961, 962, 963, 964, 965, 966, 967, 
968, 
*ELSET,ELSET=Web_20
969, 970, 971, 972, 973, 974, 975, 976, 977, 978, 
** ... 12 like lines cut

**
** ═══════════════════════════════════════════
** NODE SETS
** ═══════════════════════════════════════════
**
*NSET, NSET=NSET_ROOT
1, 2, 5, 6, 9, 10, 61, 62, 63, 64,
65, 66, 67, 68, 69, 141, 142, 143, 144, 145,
146, 147, 148, 149, 221,
*NSET, NSET=NSET_TIP
3, 4, 7, 8, 59, 60, 101, 102, 103, 104,
105, 106, 107, 108, 109, 181, 182, 183, 184, 185,
186, 187, 188, 189, 458,
*NSET, NSET=NSET_TIP_LOAD
105,
**
** ═══════════════════════════════════════════
** MATERIAL
** ═══════════════════════════════════════════
**
*MATERIAL, NAME=CFRP_T300
*ELASTIC, TYPE=ENGINEERING CONSTANTS
135000000000.0, 10000000000.0, 10000000000.0, 0.28, 0.28, 0.4, 5000000000.0, 5000000000.0,
3500000000.0
*DENSITY
1600.0
**
** ═══════════════════════════════════════════
** ORIENTATIONS
** ═══════════════════════════════════════════
**
*ORIENTATION, NAME=OR_SKIN, SYSTEM=RECTANGULAR
0., 1., 0.,  0., 0., 1.
*ORIENTATION, NAME=OR_Web_0, SYSTEM=RECTANGULAR
0.0, 1.0, 0.0,  0., 0., 1.
*ORIENTATION, NAME=OR_Web_1, SYSTEM=RECTANGULAR
-1.0, 0.0, 0.0,  0., 0., 1.
*ORIENTATION, NAME=OR_Web_2, SYSTEM=RECTANGULAR
1.0, 0.0, 0.0,  0., 0., 1.
*ORIENTATION, NAME=OR_Web_3, SYSTEM=RECTANGULAR
0.0, 1.0, 0.0,  0., 0., 1.
*ORIENTATION, NAME=OR_Web_4, SYSTEM=RECTANGULAR
-1.0, 0.0, 0.0,  0., 0., 1.
*ORIENTATION, NAME=OR_Web_5, SYSTEM=RECTANGULAR
1.0, 0.0, 0.0,  0., 0., 1.
*ORIENTATION, NAME=OR_Web_6, SYSTEM=RECTANGULAR
0.0, 1.0, 0.0,  0., 0., 1.
*ORIENTATION, NAME=OR_Web_7, SYSTEM=RECTANGULAR
-1.0, 0.0, 0.0,  0., 0., 1.
*ORIENTATION, NAME=OR_Web_8, SYSTEM=RECTANGULAR
1.0, 0.0, 0.0,  0., 0., 1.
*ORIENTATION, NAME=OR_Web_9, SYSTEM=RECTANGULAR
0.0, 1.0, 0.0,  0., 0., 1.
*ORIENTATION, NAME=OR_Web_10, SYSTEM=RECTANGULAR
-1.0, 0.0, 0.0,  0., 0., 1.
*ORIENTATION, NAME=OR_Web_11, SYSTEM=RECTANGULAR
1.0, 0.0, 0.0,  0., 0., 1.
*ORIENTATION, NAME=OR_Web_12, SYSTEM=RECTANGULAR
0.0, 1.0, 0.0,  0., 0., 1.
*ORIENTATION, NAME=OR_Web_13, SYSTEM=RECTANGULAR
-1.0, 0.0, 0.0,  0., 0., 1.
*ORIENTATION, NAME=OR_Web_14, SYSTEM=RECTANGULAR
1.0, 0.0, 0.0,  0., 0., 1.
*ORIENTATION, NAME=OR_Web_15, SYSTEM=RECTANGULAR
0.0, 1.0, 0.0,  0., 0., 1.
*ORIENTATION, NAME=OR_Web_16, SYSTEM=RECTANGULAR
-1.0, 0.0, 0.0,  0., 0., 1.
*ORIENTATION, NAME=OR_Web_17, SYSTEM=RECTANGULAR
1.0, 0.0, 0.0,  0., 0., 1.
*ORIENTATION, NAME=OR_Web_18, SYSTEM=RECTANGULAR
0.0, 1.0, 0.0,  0., 0., 1.
*ORIENTATION, NAME=OR_Web_19, SYSTEM=RECTANGULAR
** ... 11 like lines cut
**
** ═══════════════════════════════════════════
** SHELL SECTIONS
** ═══════════════════════════════════════════
**
*SHELL SECTION, ELSET=WingSkin, MATERIAL=CFRP_T300, ORIENTATION=OR_SKIN
0.003
*SHELL SECTION, ELSET=Web_0, MATERIAL=CFRP_T300, ORIENTATION=OR_Web_0
0.001
*SHELL SECTION, ELSET=Web_1, MATERIAL=CFRP_T300, ORIENTATION=OR_Web_1
0.0005
*SHELL SECTION, ELSET=Web_2, MATERIAL=CFRP_T300, ORIENTATION=OR_Web_2
0.0005
*SHELL SECTION, ELSET=Web_3, MATERIAL=CFRP_T300, ORIENTATION=OR_Web_3
0.001
*SHELL SECTION, ELSET=Web_4, MATERIAL=CFRP_T300, ORIENTATION=OR_Web_4
0.0005
*SHELL SECTION, ELSET=Web_5, MATERIAL=CFRP_T300, ORIENTATION=OR_Web_5
0.0005
*SHELL SECTION, ELSET=Web_6, MATERIAL=CFRP_T300, ORIENTATION=OR_Web_6
0.001
*SHELL SECTION, ELSET=Web_7, MATERIAL=CFRP_T300, ORIENTATION=OR_Web_7
0.0005
*SHELL SECTION, ELSET=Web_8, MATERIAL=CFRP_T300, ORIENTATION=OR_Web_8
0.0005
*SHELL SECTION, ELSET=Web_9, MATERIAL=CFRP_T300, ORIENTATION=OR_Web_9
0.001
*SHELL SECTION, ELSET=Web_10, MATERIAL=CFRP_T300, ORIENTATION=OR_Web_10
0.0005
*SHELL SECTION, ELSET=Web_11, MATERIAL=CFRP_T300, ORIENTATION=OR_Web_11
0.0005
*SHELL SECTION, ELSET=Web_12, MATERIAL=CFRP_T300, ORIENTATION=OR_Web_12
0.001
*SHELL SECTION, ELSET=Web_13, MATERIAL=CFRP_T300, ORIENTATION=OR_Web_13
0.0005
*SHELL SECTION, ELSET=Web_14, MATERIAL=CFRP_T300, ORIENTATION=OR_Web_14
0.0005
*SHELL SECTION, ELSET=Web_15, MATERIAL=CFRP_T300, ORIENTATION=OR_Web_15
0.001
*SHELL SECTION, ELSET=Web_16, MATERIAL=CFRP_T300, ORIENTATION=OR_Web_16
0.0005
*SHELL SECTION, ELSET=Web_17, MATERIAL=CFRP_T300, ORIENTATION=OR_Web_17
0.0005
*SHELL SECTION, ELSET=Web_18, MATERIAL=CFRP_T300, ORIENTATION=OR_Web_18
0.001
*SHELL SECTION, ELSET=Web_19, MATERIAL=CFRP_T300, ORIENTATION=OR_Web_19
** ... 11 like lines cut
**
** ═══════════════════════════════════════════
** KINEMATIC COUPLING (MPC EQUATIONS)
** ═══════════════════════════════════════════
** Tying web boundary nodes to nearest skin nodes
*EQUATION
2
11, 1, 1.0, 1040, 1, -1.0
*EQUATION
2
11, 2, 1.0, 1040, 2, -1.0
*EQUATION
2
11, 3, 1.0, 1040, 3, -1.0
*EQUATION
2
12, 1, 1.0, 706, 1, -1.0
*EQUATION
2
12, 2, 1.0, 706, 2, -1.0
*EQUATION
2
12, 3, 1.0, 706, 3, -1.0
*EQUATION
2
13, 1, 1.0, 1028, 1, -1.0
*EQUATION
2
13, 2, 1.0, 1028, 2, -1.0
*EQUATION
2
13, 3, 1.0, 1028, 3, -1.0
*EQUATION
2
14, 1, 1.0, 494, 1, -1.0
*EQUATION
2
14, 2, 1.0, 494, 2, -1.0
*EQUATION
2
14, 3, 1.0, 494, 3, -1.0
*EQUATION
2
15, 1, 1.0, 796, 1, -1.0
*EQUATION
2
15, 2, 1.0, 796, 2, -1.0
*EQUATION
2
15, 3, 1.0, 796, 3, -1.0
*EQUATION
2
16, 1, 1.0, 707, 1, -1.0
*EQUATION
2
16, 2, 1.0, 707, 2, -1.0
*EQUATION
2
16, 3, 1.0, 707, 3, -1.0
*EQUATION
2
17, 1, 1.0, 811, 1, -1.0
*EQUATION
2
17, 2, 1.0, 811, 2, -1.0
*EQUATION
2
17, 3, 1.0, 811, 3, -1.0
*EQUATION
2
18, 1, 1.0, 548, 1, -1.0
*EQUATION
2
18, 2, 1.0, 548, 2, -1.0
*EQUATION
2
18, 3, 1.0, 548, 3, -1.0
*EQUATION
2
19, 1, 1.0, 899, 1, -1.0
*EQUATION
2
19, 2, 1.0, 899, 2, -1.0
*EQUATION
2
19, 3, 1.0, 899, 3, -1.0
*EQUATION
2
20, 1, 1.0, 759, 1, -1.0
*EQUATION
2
20, 2, 1.0, 759, 2, -1.0
*EQUATION
2
20, 3, 1.0, 759, 3, -1.0
*EQUATION
2
21, 1, 1.0, 1035, 1, -1.0
*EQUATION
2
21, 2, 1.0, 1035, 2, -1.0
*EQUATION
2
21, 3, 1.0, 1035, 3, -1.0
*EQUATION
2
22, 1, 1.0, 710, 1, -1.0
*EQUATION
2
22, 2, 1.0, 710, 2, -1.0
*EQUATION
2
22, 3, 1.0, 710, 3, -1.0
*EQUATION
2
23, 1, 1.0, 821, 1, -1.0
*EQUATION
2
23, 2, 1.0, 821, 2, -1.0
*EQUATION
2
23, 3, 1.0, 821, 3, -1.0
*EQUATION
2
24, 1, 1.0, 557, 1, -1.0
*EQUATION
2
24, 2, 1.0, 557, 2, -1.0
*EQUATION
2
24, 3, 1.0, 557, 3, -1.0
*EQUATION
2
25, 1, 1.0, 948, 1, -1.0
*EQUATION
2
25, 2, 1.0, 948, 2, -1.0
*EQUATION
2
25, 3, 1.0, 948, 3, -1.0
*EQUATION
2
26, 1, 1.0, 602, 1, -1.0
*EQUATION
2
26, 2, 1.0, 602, 2, -1.0
*EQUATION
2
26, 3, 1.0, 602, 3, -1.0
*EQUATION
2
27, 1, 1.0, 973, 1, -1.0
*EQUATION
2
27, 2, 1.0, 973, 2, -1.0
*EQUATION
2
27, 3, 1.0, 973, 3, -1.0
*EQUATION
2
28, 1, 1.0, 540, 1, -1.0
*EQUATION
2
28, 2, 1.0, 540, 2, -1.0
*EQUATION
2
28, 3, 1.0, 540, 3, -1.0
*EQUATION
2
29, 1, 1.0, 829, 1, -1.0
*EQUATION
2
29, 2, 1.0, 829, 2, -1.0
*EQUATION
2
29, 3, 1.0, 829, 3, -1.0
*EQUATION
2
30, 1, 1.0, 558, 1, -1.0
*EQUATION
2
30, 2, 1.0, 558, 2, -1.0
*EQUATION
2
30, 3, 1.0, 558, 3, -1.0
*EQUATION
2
31, 1, 1.0, 957, 1, -1.0
*EQUATION
2
31, 2, 1.0, 957, 2, -1.0
*EQUATION
2
31, 3, 1.0, 957, 3, -1.0
*EQUATION
2
32, 1, 1.0, 611, 1, -1.0
*EQUATION
2
32, 2, 1.0, 611, 2, -1.0
*EQUATION
2
32, 3, 1.0, 611, 3, -1.0
*EQUATION
2
33, 1, 1.0, 1024, 1, -1.0
*EQUATION
2
33, 2, 1.0, 1024, 2, -1.0
*EQUATION
2
33, 3, 1.0, 1024, 3, -1.0
*EQUATION
2
34, 1, 1.0, 572, 1, -1.0
*EQUATION
2
34, 2, 1.0, 572, 2, -1.0
*EQUATION
2
34, 3, 1.0, 572, 3, -1.0
*EQUATION
2
35, 1, 1.0, 837, 1, -1.0
*EQUATION
2
35, 2, 1.0, 837, 2, -1.0
*EQUATION
2
35, 3, 1.0, 837, 3, -1.0
*EQUATION
2
36, 1, 1.0, 695, 1, -1.0
*EQUATION
2
36, 2, 1.0, 695, 2, -1.0
*EQUATION
2
36, 3, 1.0, 695, 3, -1.0
*EQUATION
2
37, 1, 1.0, 1017, 1, -1.0
*EQUATION
2
37, 2, 1.0, 1017, 2, -1.0
*EQUATION
2
37, 3, 1.0, 1017, 3, -1.0
*EQUATION
2
38, 1, 1.0, 692, 1, -1.0
*EQUATION
2
38, 2, 1.0, 692, 2, -1.0
*EQUATION
2
38, 3, 1.0, 692, 3, -1.0
*EQUATION
2
39, 1, 1.0, 987, 1, -1.0
*EQUATION
2
39, 2, 1.0, 987, 2, -1.0
*EQUATION
2
39, 3, 1.0, 987, 3, -1.0
*EQUATION
2
40, 1, 1.0, 524, 1, -1.0
*EQUATION
2
40, 2, 1.0, 524, 2, -1.0
*EQUATION
2
40, 3, 1.0, 524, 3, -1.0
*EQUATION
2
41, 1, 1.0, 985, 1, -1.0
*EQUATION
2
41, 2, 1.0, 985, 2, -1.0
*EQUATION
2
41, 3, 1.0, 985, 3, -1.0
*EQUATION
2
42, 1, 1.0, 512, 1, -1.0
*EQUATION
2
42, 2, 1.0, 512, 2, -1.0
*EQUATION
2
42, 3, 1.0, 512, 3, -1.0
*EQUATION
2
43, 1, 1.0, 986, 1, -1.0
*EQUATION
2
43, 2, 1.0, 986, 2, -1.0
*EQUATION
2
43, 3, 1.0, 986, 3, -1.0
*EQUATION
2
44, 1, 1.0, 655, 1, -1.0
*EQUATION
2
44, 2, 1.0, 655, 2, -1.0
*EQUATION
2
44, 3, 1.0, 655, 3, -1.0
*EQUATION
2
45, 1, 1.0, 931, 1, -1.0
*EQUATION
2
45, 2, 1.0, 931, 2, -1.0
*EQUATION
2
45, 3, 1.0, 931, 3, -1.0
*EQUATION
2
46, 1, 1.0, 560, 1, -1.0
*EQUATION
2
46, 2, 1.0, 560, 2, -1.0
*EQUATION
2
46, 3, 1.0, 560, 3, -1.0
*EQUATION
2
47, 1, 1.0, 1036, 1, -1.0
*EQUATION
2
47, 2, 1.0, 1036, 2, -1.0
*EQUATION
2
47, 3, 1.0, 1036, 3, -1.0
*EQUATION
2
48, 1, 1.0, 504, 1, -1.0
*EQUATION
2
48, 2, 1.0, 504, 2, -1.0
*EQUATION
2
48, 3, 1.0, 504, 3, -1.0
*EQUATION
2
49, 1, 1.0, 1042, 1, -1.0
*EQUATION
2
49, 2, 1.0, 1042, 2, -1.0
*EQUATION
2
49, 3, 1.0, 1042, 3, -1.0
*EQUATION
2
50, 1, 1.0, 641, 1, -1.0
*EQUATION
2
50, 2, 1.0, 641, 2, -1.0
*EQUATION
2
50, 3, 1.0, 641, 3, -1.0
*EQUATION
2
51, 1, 1.0, 923, 1, -1.0
*EQUATION
2
51, 2, 1.0, 923, 2, -1.0
*EQUATION
2
51, 3, 1.0, 923, 3, -1.0
*EQUATION
2
52, 1, 1.0, 556, 1, -1.0
*EQUATION
2
52, 2, 1.0, 556, 2, -1.0
*EQUATION
2
52, 3, 1.0, 556, 3, -1.0
*EQUATION
2
53, 1, 1.0, 897, 1, -1.0
*EQUATION
2
53, 2, 1.0, 897, 2, -1.0
*EQUATION
2
53, 3, 1.0, 897, 3, -1.0
*EQUATION
2
54, 1, 1.0, 762, 1, -1.0
*EQUATION
2
54, 2, 1.0, 762, 2, -1.0
*EQUATION
2
54, 3, 1.0, 762, 3, -1.0
*EQUATION
2
55, 1, 1.0, 1031, 1, -1.0
*EQUATION
2
55, 2, 1.0, 1031, 2, -1.0
*EQUATION
2
55, 3, 1.0, 1031, 3, -1.0
*EQUATION
2
56, 1, 1.0, 749, 1, -1.0
*EQUATION
2
56, 2, 1.0, 749, 2, -1.0
*EQUATION
2
56, 3, 1.0, 749, 3, -1.0
*EQUATION
2
57, 1, 1.0, 912, 1, -1.0
*EQUATION
2
57, 2, 1.0, 912, 2, -1.0
*EQUATION
2
57, 3, 1.0, 912, 3, -1.0
*EQUATION
2
58, 1, 1.0, 628, 1, -1.0
*EQUATION
2
58, 2, 1.0, 628, 2, -1.0
*EQUATION
2
58, 3, 1.0, 628, 3, -1.0
*EQUATION
2
59, 1, 1.0, 184, 1, -1.0
*EQUATION
2
59, 2, 1.0, 184, 2, -1.0
*EQUATION
2
59, 3, 1.0, 184, 3, -1.0
*EQUATION
2
60, 1, 1.0, 106, 1, -1.0
*EQUATION
2
60, 2, 1.0, 106, 2, -1.0
*EQUATION
2
60, 3, 1.0, 106, 3, -1.0
*EQUATION
2
223, 1, 1.0, 798, 1, -1.0
*EQUATION
2
223, 2, 1.0, 798, 2, -1.0
*EQUATION
2
223, 3, 1.0, 798, 3, -1.0
*EQUATION
2
224, 1, 1.0, 143, 1, -1.0
*EQUATION
2
224, 2, 1.0, 143, 2, -1.0
*EQUATION
2
224, 3, 1.0, 143, 3, -1.0
*EQUATION
2
225, 1, 1.0, 144, 1, -1.0
*EQUATION
2
225, 2, 1.0, 144, 2, -1.0
*EQUATION
2
225, 3, 1.0, 144, 3, -1.0
*EQUATION
2
226, 1, 1.0, 68, 1, -1.0
*EQUATION
2
226, 2, 1.0, 68, 2, -1.0
*EQUATION
2
226, 3, 1.0, 68, 3, -1.0
*EQUATION
2
227, 1, 1.0, 599, 1, -1.0
*EQUATION
2
227, 2, 1.0, 599, 2, -1.0
*EQUATION
2
227, 3, 1.0, 599, 3, -1.0
*EQUATION
2
228, 1, 1.0, 488, 1, -1.0
*EQUATION
2
228, 2, 1.0, 488, 2, -1.0
*EQUATION
2
228, 3, 1.0, 488, 3, -1.0
*EQUATION
2
229, 1, 1.0, 67, 1, -1.0
*EQUATION
2
229, 2, 1.0, 67, 2, -1.0
*EQUATION
2
229, 3, 1.0, 67, 3, -1.0
*EQUATION
2
230, 1, 1.0, 771, 1, -1.0
*EQUATION
2
230, 2, 1.0, 771, 2, -1.0
*EQUATION
2
230, 3, 1.0, 771, 3, -1.0
*EQUATION
2
231, 1, 1.0, 145, 1, -1.0
*EQUATION
2
231, 2, 1.0, 145, 2, -1.0
*EQUATION
2
231, 3, 1.0, 145, 3, -1.0
*EQUATION
2
232, 1, 1.0, 1038, 1, -1.0
*EQUATION
2
232, 2, 1.0, 1038, 2, -1.0
*EQUATION
2
232, 3, 1.0, 1038, 3, -1.0
*EQUATION
2
233, 1, 1.0, 146, 1, -1.0
*EQUATION
2
233, 2, 1.0, 146, 2, -1.0
*EQUATION
2
233, 3, 1.0, 146, 3, -1.0
*EQUATION
2
234, 1, 1.0, 492, 1, -1.0
*EQUATION
2
234, 2, 1.0, 492, 2, -1.0
*EQUATION
2
234, 3, 1.0, 492, 3, -1.0
*EQUATION
2
235, 1, 1.0, 66, 1, -1.0
*EQUATION
2
235, 2, 1.0, 66, 2, -1.0
*EQUATION
2
235, 3, 1.0, 66, 3, -1.0
*EQUATION
2
236, 1, 1.0, 471, 1, -1.0
*EQUATION
2
236, 2, 1.0, 471, 2, -1.0
*EQUATION
2
236, 3, 1.0, 471, 3, -1.0
*EQUATION
2
237, 1, 1.0, 65, 1, -1.0
*EQUATION
2
237, 2, 1.0, 65, 2, -1.0
*EQUATION
2
237, 3, 1.0, 65, 3, -1.0
*EQUATION
2
238, 1, 1.0, 64, 1, -1.0
*EQUATION
2
238, 2, 1.0, 64, 2, -1.0
*EQUATION
2
238, 3, 1.0, 64, 3, -1.0
*EQUATION
2
239, 1, 1.0, 1083, 1, -1.0
*EQUATION
2
239, 2, 1.0, 1083, 2, -1.0
*EQUATION
2
239, 3, 1.0, 1083, 3, -1.0
*EQUATION
2
240, 1, 1.0, 1057, 1, -1.0
*EQUATION
2
240, 2, 1.0, 1057, 2, -1.0
*EQUATION
2
240, 3, 1.0, 1057, 3, -1.0
*EQUATION
2
241, 1, 1.0, 901, 1, -1.0
*EQUATION
2
241, 2, 1.0, 901, 2, -1.0
*EQUATION
2
241, 3, 1.0, 901, 3, -1.0
*EQUATION
2
242, 1, 1.0, 900, 1, -1.0
*EQUATION
2
242, 2, 1.0, 900, 2, -1.0
*EQUATION
2
242, 3, 1.0, 900, 3, -1.0
*EQUATION
2
243, 1, 1.0, 864, 1, -1.0
*EQUATION
2
243, 2, 1.0, 864, 2, -1.0
*EQUATION
2
243, 3, 1.0, 864, 3, -1.0
*EQUATION
2
244, 1, 1.0, 809, 1, -1.0
*EQUATION
2
244, 2, 1.0, 809, 2, -1.0
*EQUATION
2
244, 3, 1.0, 809, 3, -1.0
*EQUATION
2
245, 1, 1.0, 810, 1, -1.0
*EQUATION
2
245, 2, 1.0, 810, 2, -1.0
*EQUATION
2
245, 3, 1.0, 810, 3, -1.0
*EQUATION
2
247, 1, 1.0, 730, 1, -1.0
*EQUATION
2
247, 2, 1.0, 730, 2, -1.0
*EQUATION
2
247, 3, 1.0, 730, 3, -1.0
*EQUATION
2
248, 1, 1.0, 591, 1, -1.0
*EQUATION
2
248, 2, 1.0, 591, 2, -1.0
*EQUATION
2
248, 3, 1.0, 591, 3, -1.0
*EQUATION
2
249, 1, 1.0, 587, 1, -1.0
*EQUATION
2
249, 2, 1.0, 587, 2, -1.0
*EQUATION
2
249, 3, 1.0, 587, 3, -1.0
*EQUATION
2
250, 1, 1.0, 567, 1, -1.0
*EQUATION
2
250, 2, 1.0, 567, 2, -1.0
*EQUATION
2
250, 3, 1.0, 567, 3, -1.0
*EQUATION
2
251, 1, 1.0, 551, 1, -1.0
*EQUATION
2
251, 2, 1.0, 551, 2, -1.0
*EQUATION
2
251, 3, 1.0, 551, 3, -1.0
*EQUATION
2
252, 1, 1.0, 699, 1, -1.0
*EQUATION
2
252, 2, 1.0, 699, 2, -1.0
*EQUATION
2
252, 3, 1.0, 699, 3, -1.0
*EQUATION
2
253, 1, 1.0, 549, 1, -1.0
*EQUATION
2
253, 2, 1.0, 549, 2, -1.0
*EQUATION
2
253, 3, 1.0, 549, 3, -1.0
*EQUATION
2
254, 1, 1.0, 1032, 1, -1.0
*EQUATION
2
254, 2, 1.0, 1032, 2, -1.0
*EQUATION
2
254, 3, 1.0, 1032, 3, -1.0
*EQUATION
2
255, 1, 1.0, 808, 1, -1.0
*EQUATION
2
255, 2, 1.0, 808, 2, -1.0
*EQUATION
2
255, 3, 1.0, 808, 3, -1.0
*EQUATION
2
256, 1, 1.0, 813, 1, -1.0
*EQUATION
2
256, 2, 1.0, 813, 2, -1.0
*EQUATION
2
256, 3, 1.0, 813, 3, -1.0
*EQUATION
2
257, 1, 1.0, 660, 1, -1.0
*EQUATION
2
257, 2, 1.0, 660, 2, -1.0
*EQUATION
2
257, 3, 1.0, 660, 3, -1.0
*EQUATION
2
258, 1, 1.0, 573, 1, -1.0
*EQUATION
2
258, 2, 1.0, 573, 2, -1.0
*EQUATION
2
258, 3, 1.0, 573, 3, -1.0
*EQUATION
2
259, 1, 1.0, 593, 1, -1.0
*EQUATION
2
259, 2, 1.0, 593, 2, -1.0
*EQUATION
2
259, 3, 1.0, 593, 3, -1.0
*EQUATION
2
260, 1, 1.0, 586, 1, -1.0
*EQUATION
2
260, 2, 1.0, 586, 2, -1.0
*EQUATION
2
260, 3, 1.0, 586, 3, -1.0
*EQUATION
2
261, 1, 1.0, 812, 1, -1.0
*EQUATION
2
261, 2, 1.0, 812, 2, -1.0
*EQUATION
2
261, 3, 1.0, 812, 3, -1.0
*EQUATION
2
262, 1, 1.0, 1034, 1, -1.0
*EQUATION
2
262, 2, 1.0, 1034, 2, -1.0
*EQUATION
2
262, 3, 1.0, 1034, 3, -1.0
*EQUATION
2
263, 1, 1.0, 859, 1, -1.0
*EQUATION
2
263, 2, 1.0, 859, 2, -1.0
*EQUATION
2
263, 3, 1.0, 859, 3, -1.0
*EQUATION
2
264, 1, 1.0, 562, 1, -1.0
*EQUATION
2
264, 2, 1.0, 562, 2, -1.0
*EQUATION
2
264, 3, 1.0, 562, 3, -1.0
*EQUATION
2
265, 1, 1.0, 711, 1, -1.0
*EQUATION
2
265, 2, 1.0, 711, 2, -1.0
*EQUATION
2
265, 3, 1.0, 711, 3, -1.0
*EQUATION
2
266, 1, 1.0, 550, 1, -1.0
*EQUATION
2
266, 2, 1.0, 550, 2, -1.0
*EQUATION
2
266, 3, 1.0, 550, 3, -1.0
*EQUATION
2
267, 1, 1.0, 547, 1, -1.0
*EQUATION
2
267, 2, 1.0, 547, 2, -1.0
*EQUATION
2
267, 3, 1.0, 547, 3, -1.0
*EQUATION
2
268, 1, 1.0, 552, 1, -1.0
*EQUATION
2
268, 2, 1.0, 552, 2, -1.0
*EQUATION
2
268, 3, 1.0, 552, 3, -1.0
*EQUATION
2
269, 1, 1.0, 546, 1, -1.0
*EQUATION
2
269, 2, 1.0, 546, 2, -1.0
*EQUATION
2
269, 3, 1.0, 546, 3, -1.0
*EQUATION
2
270, 1, 1.0, 814, 1, -1.0
*EQUATION
2
270, 2, 1.0, 814, 2, -1.0
*EQUATION
2
270, 3, 1.0, 814, 3, -1.0
*EQUATION
2
271, 1, 1.0, 815, 1, -1.0
*EQUATION
2
271, 2, 1.0, 815, 2, -1.0
*EQUATION
2
271, 3, 1.0, 815, 3, -1.0
*EQUATION
2
272, 1, 1.0, 708, 1, -1.0
*EQUATION
2
272, 2, 1.0, 708, 2, -1.0
*EQUATION
2
272, 3, 1.0, 708, 3, -1.0
*EQUATION
2
273, 1, 1.0, 816, 1, -1.0
*EQUATION
2
273, 2, 1.0, 816, 2, -1.0
*EQUATION
2
273, 3, 1.0, 816, 3, -1.0
*EQUATION
2
274, 1, 1.0, 817, 1, -1.0
*EQUATION
2
274, 2, 1.0, 817, 2, -1.0
*EQUATION
2
274, 3, 1.0, 817, 3, -1.0
*EQUATION
2
275, 1, 1.0, 819, 1, -1.0
*EQUATION
2
275, 2, 1.0, 819, 2, -1.0
*EQUATION
2
275, 3, 1.0, 819, 3, -1.0
*EQUATION
2
276, 1, 1.0, 818, 1, -1.0
*EQUATION
2
276, 2, 1.0, 818, 2, -1.0
*EQUATION
2
276, 3, 1.0, 818, 3, -1.0
*EQUATION
2
278, 1, 1.0, 574, 1, -1.0
*EQUATION
2
278, 2, 1.0, 574, 2, -1.0
*EQUATION
2
278, 3, 1.0, 574, 3, -1.0
*EQUATION
2
279, 1, 1.0, 945, 1, -1.0
*EQUATION
2
279, 2, 1.0, 945, 2, -1.0
*EQUATION
2
279, 3, 1.0, 945, 3, -1.0
*EQUATION
2
280, 1, 1.0, 709, 1, -1.0
*EQUATION
2
280, 2, 1.0, 709, 2, -1.0
*EQUATION
2
280, 3, 1.0, 709, 3, -1.0
*EQUATION
2
281, 1, 1.0, 596, 1, -1.0
*EQUATION
2
281, 2, 1.0, 596, 2, -1.0
*EQUATION
2
281, 3, 1.0, 596, 3, -1.0
*EQUATION
2
282, 1, 1.0, 543, 1, -1.0
*EQUATION
2
282, 2, 1.0, 543, 2, -1.0
*EQUATION
2
282, 3, 1.0, 543, 3, -1.0
*EQUATION
2
283, 1, 1.0, 728, 1, -1.0
*EQUATION
2
283, 2, 1.0, 728, 2, -1.0
*EQUATION
2
283, 3, 1.0, 728, 3, -1.0
*EQUATION
2
284, 1, 1.0, 541, 1, -1.0
*EQUATION
2
284, 2, 1.0, 541, 2, -1.0
*EQUATION
2
284, 3, 1.0, 541, 3, -1.0
*EQUATION
2
285, 1, 1.0, 952, 1, -1.0
*EQUATION
2
285, 2, 1.0, 952, 2, -1.0
*EQUATION
2
285, 3, 1.0, 952, 3, -1.0
*EQUATION
2
286, 1, 1.0, 950, 1, -1.0
*EQUATION
2
286, 2, 1.0, 950, 2, -1.0
*EQUATION
2
286, 3, 1.0, 950, 3, -1.0
*EQUATION
2
287, 1, 1.0, 880, 1, -1.0
*EQUATION
2
287, 2, 1.0, 880, 2, -1.0
*EQUATION
2
287, 3, 1.0, 880, 3, -1.0
*EQUATION
2
288, 1, 1.0, 603, 1, -1.0
*EQUATION
2
288, 2, 1.0, 603, 2, -1.0
*EQUATION
2
288, 3, 1.0, 603, 3, -1.0
*EQUATION
2
289, 1, 1.0, 613, 1, -1.0
*EQUATION
2
289, 2, 1.0, 613, 2, -1.0
*EQUATION
2
289, 3, 1.0, 613, 3, -1.0
*EQUATION
2
290, 1, 1.0, 726, 1, -1.0
*EQUATION
2
290, 2, 1.0, 726, 2, -1.0
*EQUATION
2
290, 3, 1.0, 726, 3, -1.0
*EQUATION
2
291, 1, 1.0, 823, 1, -1.0
*EQUATION
2
291, 2, 1.0, 823, 2, -1.0
*EQUATION
2
291, 3, 1.0, 823, 3, -1.0
*EQUATION
2
292, 1, 1.0, 820, 1, -1.0
*EQUATION
2
292, 2, 1.0, 820, 2, -1.0
*EQUATION
2
292, 3, 1.0, 820, 3, -1.0
*EQUATION
2
293, 1, 1.0, 822, 1, -1.0
*EQUATION
2
293, 2, 1.0, 822, 2, -1.0
*EQUATION
2
293, 3, 1.0, 822, 3, -1.0
*EQUATION
2
294, 1, 1.0, 1044, 1, -1.0
*EQUATION
2
294, 2, 1.0, 1044, 2, -1.0
*EQUATION
2
294, 3, 1.0, 1044, 3, -1.0
*EQUATION
2
295, 1, 1.0, 538, 1, -1.0
*EQUATION
2
295, 2, 1.0, 538, 2, -1.0
*EQUATION
2
295, 3, 1.0, 538, 3, -1.0
*EQUATION
2
296, 1, 1.0, 969, 1, -1.0
*EQUATION
2
296, 2, 1.0, 969, 2, -1.0
*EQUATION
2
296, 3, 1.0, 969, 3, -1.0
*EQUATION
2
297, 1, 1.0, 539, 1, -1.0
*EQUATION
2
297, 2, 1.0, 539, 2, -1.0
*EQUATION
2
297, 3, 1.0, 539, 3, -1.0
*EQUATION
2
298, 1, 1.0, 537, 1, -1.0
*EQUATION
2
298, 2, 1.0, 537, 2, -1.0
*EQUATION
2
298, 3, 1.0, 537, 3, -1.0
*EQUATION
2
299, 1, 1.0, 542, 1, -1.0
*EQUATION
2
299, 2, 1.0, 542, 2, -1.0
*EQUATION
2
299, 3, 1.0, 542, 3, -1.0
*EQUATION
2
300, 1, 1.0, 579, 1, -1.0
*EQUATION
2
300, 2, 1.0, 579, 2, -1.0
*EQUATION
2
300, 3, 1.0, 579, 3, -1.0
*EQUATION
2
301, 1, 1.0, 555, 1, -1.0
*EQUATION
2
301, 2, 1.0, 555, 2, -1.0
*EQUATION
2
301, 3, 1.0, 555, 3, -1.0
*EQUATION
2
302, 1, 1.0, 825, 1, -1.0
*EQUATION
2
302, 2, 1.0, 825, 2, -1.0
*EQUATION
2
302, 3, 1.0, 825, 3, -1.0
*EQUATION
2
303, 1, 1.0, 824, 1, -1.0
*EQUATION
2
303, 2, 1.0, 824, 2, -1.0
*EQUATION
2
303, 3, 1.0, 824, 3, -1.0
*EQUATION
2
304, 1, 1.0, 1043, 1, -1.0
*EQUATION
2
304, 2, 1.0, 1043, 2, -1.0
*EQUATION
2
304, 3, 1.0, 1043, 3, -1.0
*EQUATION
2
305, 1, 1.0, 827, 1, -1.0
*EQUATION
2
305, 2, 1.0, 827, 2, -1.0
*EQUATION
2
305, 3, 1.0, 827, 3, -1.0
*EQUATION
2
306, 1, 1.0, 958, 1, -1.0
*EQUATION
2
306, 2, 1.0, 958, 2, -1.0
*EQUATION
2
306, 3, 1.0, 958, 3, -1.0
*EQUATION
2
307, 1, 1.0, 736, 1, -1.0
*EQUATION
2
307, 2, 1.0, 736, 2, -1.0
*EQUATION
2
307, 3, 1.0, 736, 3, -1.0
*EQUATION
2
309, 1, 1.0, 607, 1, -1.0
*EQUATION
2
309, 2, 1.0, 607, 2, -1.0
*EQUATION
2
309, 3, 1.0, 607, 3, -1.0
*EQUATION
2
310, 1, 1.0, 612, 1, -1.0
*EQUATION
2
310, 2, 1.0, 612, 2, -1.0
*EQUATION
2
310, 3, 1.0, 612, 3, -1.0
*EQUATION
2
311, 1, 1.0, 535, 1, -1.0
*EQUATION
2
311, 2, 1.0, 535, 2, -1.0
*EQUATION
2
311, 3, 1.0, 535, 3, -1.0
*EQUATION
2
312, 1, 1.0, 755, 1, -1.0
*EQUATION
2
312, 2, 1.0, 755, 2, -1.0
*EQUATION
2
312, 3, 1.0, 755, 3, -1.0
*EQUATION
2
313, 1, 1.0, 533, 1, -1.0
*EQUATION
2
313, 2, 1.0, 533, 2, -1.0
*EQUATION
2
313, 3, 1.0, 533, 3, -1.0
*EQUATION
2
314, 1, 1.0, 615, 1, -1.0
*EQUATION
2
314, 2, 1.0, 615, 2, -1.0
*EQUATION
2
314, 3, 1.0, 615, 3, -1.0
*EQUATION
2
315, 1, 1.0, 531, 1, -1.0
*EQUATION
2
315, 2, 1.0, 531, 2, -1.0
*EQUATION
2
315, 3, 1.0, 531, 3, -1.0
*EQUATION
2
316, 1, 1.0, 879, 1, -1.0
*EQUATION
2
316, 2, 1.0, 879, 2, -1.0
*EQUATION
2
316, 3, 1.0, 879, 3, -1.0
*EQUATION
2
317, 1, 1.0, 734, 1, -1.0
*EQUATION
2
317, 2, 1.0, 734, 2, -1.0
*EQUATION
2
317, 3, 1.0, 734, 3, -1.0
*EQUATION
2
318, 1, 1.0, 1045, 1, -1.0
*EQUATION
2
318, 2, 1.0, 1045, 2, -1.0
*EQUATION
2
318, 3, 1.0, 1045, 3, -1.0
*EQUATION
2
319, 1, 1.0, 1022, 1, -1.0
*EQUATION
2
319, 2, 1.0, 1022, 2, -1.0
*EQUATION
2
319, 3, 1.0, 1022, 3, -1.0
*EQUATION
2
320, 1, 1.0, 609, 1, -1.0
*EQUATION
2
320, 2, 1.0, 609, 2, -1.0
*EQUATION
2
320, 3, 1.0, 609, 3, -1.0
*EQUATION
2
321, 1, 1.0, 742, 1, -1.0
*EQUATION
2
321, 2, 1.0, 742, 2, -1.0
*EQUATION
2
321, 3, 1.0, 742, 3, -1.0
*EQUATION
2
322, 1, 1.0, 689, 1, -1.0
*EQUATION
2
322, 2, 1.0, 689, 2, -1.0
*EQUATION
2
322, 3, 1.0, 689, 3, -1.0
*EQUATION
2
323, 1, 1.0, 828, 1, -1.0
*EQUATION
2
323, 2, 1.0, 828, 2, -1.0
*EQUATION
2
323, 3, 1.0, 828, 3, -1.0
*EQUATION
2
324, 1, 1.0, 826, 1, -1.0
*EQUATION
2
324, 2, 1.0, 826, 2, -1.0
*EQUATION
2
324, 3, 1.0, 826, 3, -1.0
*EQUATION
2
325, 1, 1.0, 862, 1, -1.0
*EQUATION
2
325, 2, 1.0, 862, 2, -1.0
*EQUATION
2
325, 3, 1.0, 862, 3, -1.0
*EQUATION
2
326, 1, 1.0, 530, 1, -1.0
*EQUATION
2
326, 2, 1.0, 530, 2, -1.0
*EQUATION
2
326, 3, 1.0, 530, 3, -1.0
*EQUATION
2
327, 1, 1.0, 1026, 1, -1.0
*EQUATION
2
327, 2, 1.0, 1026, 2, -1.0
*EQUATION
2
327, 3, 1.0, 1026, 3, -1.0
*EQUATION
2
328, 1, 1.0, 529, 1, -1.0
*EQUATION
2
328, 2, 1.0, 529, 2, -1.0
*EQUATION
2
328, 3, 1.0, 529, 3, -1.0
*EQUATION
2
329, 1, 1.0, 532, 1, -1.0
*EQUATION
2
329, 2, 1.0, 532, 2, -1.0
*EQUATION
2
329, 3, 1.0, 532, 3, -1.0
*EQUATION
2
330, 1, 1.0, 528, 1, -1.0
*EQUATION
2
330, 2, 1.0, 528, 2, -1.0
*EQUATION
2
330, 3, 1.0, 528, 3, -1.0
*EQUATION
2
331, 1, 1.0, 716, 1, -1.0
*EQUATION
2
331, 2, 1.0, 716, 2, -1.0
*EQUATION
2
331, 3, 1.0, 716, 3, -1.0
*EQUATION
2
332, 1, 1.0, 831, 1, -1.0
*EQUATION
2
332, 2, 1.0, 831, 2, -1.0
*EQUATION
2
332, 3, 1.0, 831, 3, -1.0
*EQUATION
2
333, 1, 1.0, 830, 1, -1.0
*EQUATION
2
333, 2, 1.0, 830, 2, -1.0
*EQUATION
2
333, 3, 1.0, 830, 3, -1.0
*EQUATION
2
334, 1, 1.0, 833, 1, -1.0
*EQUATION
2
334, 2, 1.0, 833, 2, -1.0
*EQUATION
2
334, 3, 1.0, 833, 3, -1.0
*EQUATION
2
335, 1, 1.0, 1021, 1, -1.0
*EQUATION
2
335, 2, 1.0, 1021, 2, -1.0
*EQUATION
2
335, 3, 1.0, 1021, 3, -1.0
*EQUATION
2
336, 1, 1.0, 835, 1, -1.0
*EQUATION
2
336, 2, 1.0, 835, 2, -1.0
*EQUATION
2
336, 3, 1.0, 835, 3, -1.0
*EQUATION
2
337, 1, 1.0, 878, 1, -1.0
*EQUATION
2
337, 2, 1.0, 878, 2, -1.0
*EQUATION
2
337, 3, 1.0, 878, 3, -1.0
*EQUATION
2
338, 1, 1.0, 1015, 1, -1.0
*EQUATION
2
338, 2, 1.0, 1015, 2, -1.0
*EQUATION
2
338, 3, 1.0, 1015, 3, -1.0
*EQUATION
2
340, 1, 1.0, 527, 1, -1.0
*EQUATION
2
340, 2, 1.0, 527, 2, -1.0
*EQUATION
2
340, 3, 1.0, 527, 3, -1.0
*EQUATION
2
341, 1, 1.0, 688, 1, -1.0
*EQUATION
2
341, 2, 1.0, 688, 2, -1.0
*EQUATION
2
341, 3, 1.0, 688, 3, -1.0
*EQUATION
2
342, 1, 1.0, 746, 1, -1.0
*EQUATION
2
342, 2, 1.0, 746, 2, -1.0
*EQUATION
2
342, 3, 1.0, 746, 3, -1.0
*EQUATION
2
343, 1, 1.0, 525, 1, -1.0
*EQUATION
2
343, 2, 1.0, 525, 2, -1.0
*EQUATION
2
343, 3, 1.0, 525, 3, -1.0
*EQUATION
2
344, 1, 1.0, 565, 1, -1.0
*EQUATION
2
344, 2, 1.0, 565, 2, -1.0
*EQUATION
2
344, 3, 1.0, 565, 3, -1.0
*EQUATION
2
345, 1, 1.0, 522, 1, -1.0
*EQUATION
2
345, 2, 1.0, 522, 2, -1.0
*EQUATION
2
345, 3, 1.0, 522, 3, -1.0
*EQUATION
2
346, 1, 1.0, 520, 1, -1.0
*EQUATION
2
346, 2, 1.0, 520, 2, -1.0
*EQUATION
2
346, 3, 1.0, 520, 3, -1.0
*EQUATION
2
347, 1, 1.0, 1070, 1, -1.0
*EQUATION
2
347, 2, 1.0, 1070, 2, -1.0
*EQUATION
2
347, 3, 1.0, 1070, 3, -1.0
*EQUATION
2
348, 1, 1.0, 1018, 1, -1.0
*EQUATION
2
348, 2, 1.0, 1018, 2, -1.0
*EQUATION
2
348, 3, 1.0, 1018, 3, -1.0
*EQUATION
2
349, 1, 1.0, 1075, 1, -1.0
*EQUATION
2
349, 2, 1.0, 1075, 2, -1.0
*EQUATION
2
349, 3, 1.0, 1075, 3, -1.0
*EQUATION
2
350, 1, 1.0, 691, 1, -1.0
*EQUATION
2
350, 2, 1.0, 691, 2, -1.0
*EQUATION
2
350, 3, 1.0, 691, 3, -1.0
*EQUATION
2
351, 1, 1.0, 747, 1, -1.0
*EQUATION
2
351, 2, 1.0, 747, 2, -1.0
*EQUATION
2
351, 3, 1.0, 747, 3, -1.0
*EQUATION
2
352, 1, 1.0, 757, 1, -1.0
*EQUATION
2
352, 2, 1.0, 757, 2, -1.0
*EQUATION
2
352, 3, 1.0, 757, 3, -1.0
*EQUATION
2
353, 1, 1.0, 569, 1, -1.0
*EQUATION
2
353, 2, 1.0, 569, 2, -1.0
*EQUATION
2
353, 3, 1.0, 569, 3, -1.0
*EQUATION
2
354, 1, 1.0, 836, 1, -1.0
*EQUATION
2
354, 2, 1.0, 836, 2, -1.0
*EQUATION
2
354, 3, 1.0, 836, 3, -1.0
*EQUATION
2
355, 1, 1.0, 834, 1, -1.0
*EQUATION
2
355, 2, 1.0, 834, 2, -1.0
*EQUATION
2
355, 3, 1.0, 834, 3, -1.0
*EQUATION
2
356, 1, 1.0, 521, 1, -1.0
*EQUATION
2
356, 2, 1.0, 521, 2, -1.0
*EQUATION
2
356, 3, 1.0, 521, 3, -1.0
*EQUATION
2
357, 1, 1.0, 866, 1, -1.0
*EQUATION
2
357, 2, 1.0, 866, 2, -1.0
*EQUATION
2
357, 3, 1.0, 866, 3, -1.0
*EQUATION
2
358, 1, 1.0, 670, 1, -1.0
*EQUATION
2
358, 2, 1.0, 670, 2, -1.0
*EQUATION
2
358, 3, 1.0, 670, 3, -1.0
*EQUATION
2
359, 1, 1.0, 523, 1, -1.0
*EQUATION
2
359, 2, 1.0, 523, 2, -1.0
*EQUATION
2
359, 3, 1.0, 523, 3, -1.0
*EQUATION
2
360, 1, 1.0, 518, 1, -1.0
*EQUATION
2
360, 2, 1.0, 518, 2, -1.0
*EQUATION
2
360, 3, 1.0, 518, 3, -1.0
*EQUATION
2
361, 1, 1.0, 519, 1, -1.0
*EQUATION
2
361, 2, 1.0, 519, 2, -1.0
*EQUATION
2
361, 3, 1.0, 519, 3, -1.0
*EQUATION
2
362, 1, 1.0, 939, 1, -1.0
*EQUATION
2
362, 2, 1.0, 939, 2, -1.0
*EQUATION
2
362, 3, 1.0, 939, 3, -1.0
*EQUATION
2
363, 1, 1.0, 839, 1, -1.0
*EQUATION
2
363, 2, 1.0, 839, 2, -1.0
*EQUATION
2
363, 3, 1.0, 839, 3, -1.0
*EQUATION
2
364, 1, 1.0, 874, 1, -1.0
*EQUATION
2
364, 2, 1.0, 874, 2, -1.0
*EQUATION
2
364, 3, 1.0, 874, 3, -1.0
*EQUATION
2
365, 1, 1.0, 841, 1, -1.0
*EQUATION
2
365, 2, 1.0, 841, 2, -1.0
*EQUATION
2
365, 3, 1.0, 841, 3, -1.0
*EQUATION
2
366, 1, 1.0, 1002, 1, -1.0
*EQUATION
2
366, 2, 1.0, 1002, 2, -1.0
*EQUATION
2
366, 3, 1.0, 1002, 3, -1.0
*EQUATION
2
367, 1, 1.0, 843, 1, -1.0
*EQUATION
2
367, 2, 1.0, 843, 2, -1.0
*EQUATION
2
367, 3, 1.0, 843, 3, -1.0
*EQUATION
2
368, 1, 1.0, 876, 1, -1.0
*EQUATION
2
368, 2, 1.0, 876, 2, -1.0
*EQUATION
2
368, 3, 1.0, 876, 3, -1.0
*EQUATION
2
369, 1, 1.0, 845, 1, -1.0
*EQUATION
2
369, 2, 1.0, 845, 2, -1.0
*EQUATION
2
369, 3, 1.0, 845, 3, -1.0
*EQUATION
2
371, 1, 1.0, 696, 1, -1.0
*EQUATION
2
371, 2, 1.0, 696, 2, -1.0
*EQUATION
2
371, 3, 1.0, 696, 3, -1.0
*EQUATION
2
372, 1, 1.0, 516, 1, -1.0
*EQUATION
2
372, 2, 1.0, 516, 2, -1.0
*EQUATION
2
372, 3, 1.0, 516, 3, -1.0
*EQUATION
2
373, 1, 1.0, 697, 1, -1.0
*EQUATION
2
373, 2, 1.0, 697, 2, -1.0
*EQUATION
2
373, 3, 1.0, 697, 3, -1.0
*EQUATION
2
374, 1, 1.0, 564, 1, -1.0
*EQUATION
2
374, 2, 1.0, 564, 2, -1.0
*EQUATION
2
374, 3, 1.0, 564, 3, -1.0
*EQUATION
2
375, 1, 1.0, 514, 1, -1.0
*EQUATION
2
375, 2, 1.0, 514, 2, -1.0
*EQUATION
2
375, 3, 1.0, 514, 3, -1.0
*EQUATION
2
376, 1, 1.0, 658, 1, -1.0
*EQUATION
2
376, 2, 1.0, 658, 2, -1.0
*EQUATION
2
376, 3, 1.0, 658, 3, -1.0
*EQUATION
2
377, 1, 1.0, 740, 1, -1.0
*EQUATION
2
377, 2, 1.0, 740, 2, -1.0
*EQUATION
2
377, 3, 1.0, 740, 3, -1.0
*EQUATION
2
378, 1, 1.0, 1061, 1, -1.0
*EQUATION
2
378, 2, 1.0, 1061, 2, -1.0
*EQUATION
2
378, 3, 1.0, 1061, 3, -1.0
*EQUATION
2
379, 1, 1.0, 1063, 1, -1.0
*EQUATION
2
379, 2, 1.0, 1063, 2, -1.0
*EQUATION
2
379, 3, 1.0, 1063, 3, -1.0
*EQUATION
2
380, 1, 1.0, 873, 1, -1.0
*EQUATION
2
380, 2, 1.0, 873, 2, -1.0
*EQUATION
2
380, 3, 1.0, 873, 3, -1.0
*EQUATION
2
381, 1, 1.0, 766, 1, -1.0
*EQUATION
2
381, 2, 1.0, 766, 2, -1.0
*EQUATION
2
381, 3, 1.0, 766, 3, -1.0
*EQUATION
2
382, 1, 1.0, 700, 1, -1.0
*EQUATION
2
382, 2, 1.0, 700, 2, -1.0
*EQUATION
2
382, 3, 1.0, 700, 3, -1.0
*EQUATION
2
383, 1, 1.0, 657, 1, -1.0
*EQUATION
2
383, 2, 1.0, 657, 2, -1.0
*EQUATION
2
383, 3, 1.0, 657, 3, -1.0
*EQUATION
2
384, 1, 1.0, 510, 1, -1.0
*EQUATION
2
384, 2, 1.0, 510, 2, -1.0
*EQUATION
2
384, 3, 1.0, 510, 3, -1.0
*EQUATION
2
385, 1, 1.0, 844, 1, -1.0
*EQUATION
2
385, 2, 1.0, 844, 2, -1.0
*EQUATION
2
385, 3, 1.0, 844, 3, -1.0
*EQUATION
2
386, 1, 1.0, 513, 1, -1.0
*EQUATION
2
386, 2, 1.0, 513, 2, -1.0
*EQUATION
2
386, 3, 1.0, 513, 3, -1.0
*EQUATION
2
387, 1, 1.0, 846, 1, -1.0
*EQUATION
2
387, 2, 1.0, 846, 2, -1.0
*EQUATION
2
387, 3, 1.0, 846, 3, -1.0
*EQUATION
2
388, 1, 1.0, 872, 1, -1.0
*EQUATION
2
388, 2, 1.0, 872, 2, -1.0
*EQUATION
2
388, 3, 1.0, 872, 3, -1.0
*EQUATION
2
389, 1, 1.0, 733, 1, -1.0
*EQUATION
2
389, 2, 1.0, 733, 2, -1.0
*EQUATION
2
389, 3, 1.0, 733, 3, -1.0
*EQUATION
2
390, 1, 1.0, 515, 1, -1.0
*EQUATION
2
390, 2, 1.0, 515, 2, -1.0
*EQUATION
2
390, 3, 1.0, 515, 3, -1.0
*EQUATION
2
391, 1, 1.0, 511, 1, -1.0
*EQUATION
2
391, 2, 1.0, 511, 2, -1.0
*EQUATION
2
391, 3, 1.0, 511, 3, -1.0
*EQUATION
2
392, 1, 1.0, 842, 1, -1.0
*EQUATION
2
392, 2, 1.0, 842, 2, -1.0
*EQUATION
2
392, 3, 1.0, 842, 3, -1.0
*EQUATION
2
393, 1, 1.0, 870, 1, -1.0
*EQUATION
2
393, 2, 1.0, 870, 2, -1.0
*EQUATION
2
393, 3, 1.0, 870, 3, -1.0
*EQUATION
2
394, 1, 1.0, 847, 1, -1.0
*EQUATION
2
394, 2, 1.0, 847, 2, -1.0
*EQUATION
2
394, 3, 1.0, 847, 3, -1.0
*EQUATION
2
395, 1, 1.0, 849, 1, -1.0
*EQUATION
2
395, 2, 1.0, 849, 2, -1.0
*EQUATION
2
395, 3, 1.0, 849, 3, -1.0
*EQUATION
2
396, 1, 1.0, 1053, 1, -1.0
*EQUATION
2
396, 2, 1.0, 1053, 2, -1.0
*EQUATION
2
396, 3, 1.0, 1053, 3, -1.0
*EQUATION
2
397, 1, 1.0, 508, 1, -1.0
*EQUATION
2
397, 2, 1.0, 508, 2, -1.0
*EQUATION
2
397, 3, 1.0, 508, 3, -1.0
*EQUATION
2
398, 1, 1.0, 871, 1, -1.0
*EQUATION
2
398, 2, 1.0, 871, 2, -1.0
*EQUATION
2
398, 3, 1.0, 871, 3, -1.0
*EQUATION
2
399, 1, 1.0, 851, 1, -1.0
*EQUATION
2
399, 2, 1.0, 851, 2, -1.0
*EQUATION
2
399, 3, 1.0, 851, 3, -1.0
*EQUATION
2
400, 1, 1.0, 853, 1, -1.0
*EQUATION
2
400, 2, 1.0, 853, 2, -1.0
*EQUATION
2
400, 3, 1.0, 853, 3, -1.0
*EQUATION
2
402, 1, 1.0, 576, 1, -1.0
*EQUATION
2
402, 2, 1.0, 576, 2, -1.0
*EQUATION
2
402, 3, 1.0, 576, 3, -1.0
*EQUATION
2
403, 1, 1.0, 509, 1, -1.0
*EQUATION
2
403, 2, 1.0, 509, 2, -1.0
*EQUATION
2
403, 3, 1.0, 509, 3, -1.0
*EQUATION
2
404, 1, 1.0, 506, 1, -1.0
*EQUATION
2
404, 2, 1.0, 506, 2, -1.0
*EQUATION
2
404, 3, 1.0, 506, 3, -1.0
*EQUATION
2
405, 1, 1.0, 715, 1, -1.0
*EQUATION
2
405, 2, 1.0, 715, 2, -1.0
*EQUATION
2
405, 3, 1.0, 715, 3, -1.0
*EQUATION
2
406, 1, 1.0, 507, 1, -1.0
*EQUATION
2
406, 2, 1.0, 507, 2, -1.0
*EQUATION
2
406, 3, 1.0, 507, 3, -1.0
*EQUATION
2
407, 1, 1.0, 578, 1, -1.0
*EQUATION
2
407, 2, 1.0, 578, 2, -1.0
*EQUATION
2
407, 3, 1.0, 578, 3, -1.0
*EQUATION
2
408, 1, 1.0, 505, 1, -1.0
*EQUATION
2
408, 2, 1.0, 505, 2, -1.0
*EQUATION
2
408, 3, 1.0, 505, 3, -1.0
*EQUATION
2
409, 1, 1.0, 886, 1, -1.0
*EQUATION
2
409, 2, 1.0, 886, 2, -1.0
*EQUATION
2
409, 3, 1.0, 886, 3, -1.0
*EQUATION
2
410, 1, 1.0, 1037, 1, -1.0
*EQUATION
2
410, 2, 1.0, 1037, 2, -1.0
*EQUATION
2
410, 3, 1.0, 1037, 3, -1.0
*EQUATION
2
411, 1, 1.0, 867, 1, -1.0
*EQUATION
2
411, 2, 1.0, 867, 2, -1.0
*EQUATION
2
411, 3, 1.0, 867, 3, -1.0
*EQUATION
2
412, 1, 1.0, 1082, 1, -1.0
*EQUATION
2
412, 2, 1.0, 1082, 2, -1.0
*EQUATION
2
412, 3, 1.0, 1082, 3, -1.0
*EQUATION
2
413, 1, 1.0, 642, 1, -1.0
*EQUATION
2
413, 2, 1.0, 642, 2, -1.0
*EQUATION
2
413, 3, 1.0, 642, 3, -1.0
*EQUATION
2
414, 1, 1.0, 600, 1, -1.0
*EQUATION
2
414, 2, 1.0, 600, 2, -1.0
*EQUATION
2
414, 3, 1.0, 600, 3, -1.0
*EQUATION
2
415, 1, 1.0, 502, 1, -1.0
*EQUATION
2
415, 2, 1.0, 502, 2, -1.0
*EQUATION
2
415, 3, 1.0, 502, 3, -1.0
*EQUATION
2
416, 1, 1.0, 855, 1, -1.0
*EQUATION
2
416, 2, 1.0, 855, 2, -1.0
*EQUATION
2
416, 3, 1.0, 855, 3, -1.0
*EQUATION
2
417, 1, 1.0, 852, 1, -1.0
*EQUATION
2
417, 2, 1.0, 852, 2, -1.0
*EQUATION
2
417, 3, 1.0, 852, 3, -1.0
*EQUATION
2
418, 1, 1.0, 854, 1, -1.0
*EQUATION
2
418, 2, 1.0, 854, 2, -1.0
*EQUATION
2
418, 3, 1.0, 854, 3, -1.0
*EQUATION
2
419, 1, 1.0, 877, 1, -1.0
*EQUATION
2
419, 2, 1.0, 877, 2, -1.0
*EQUATION
2
419, 3, 1.0, 877, 3, -1.0
*EQUATION
2
420, 1, 1.0, 646, 1, -1.0
*EQUATION
2
420, 2, 1.0, 646, 2, -1.0
*EQUATION
2
420, 3, 1.0, 646, 3, -1.0
*EQUATION
2
421, 1, 1.0, 503, 1, -1.0
*EQUATION
2
421, 2, 1.0, 503, 2, -1.0
*EQUATION
2
421, 3, 1.0, 503, 3, -1.0
*EQUATION
2
422, 1, 1.0, 704, 1, -1.0
*EQUATION
2
422, 2, 1.0, 704, 2, -1.0
*EQUATION
2
422, 3, 1.0, 704, 3, -1.0
*EQUATION
2
423, 1, 1.0, 703, 1, -1.0
*EQUATION
2
423, 2, 1.0, 703, 2, -1.0
*EQUATION
2
423, 3, 1.0, 703, 3, -1.0
*EQUATION
2
424, 1, 1.0, 916, 1, -1.0
*EQUATION
2
424, 2, 1.0, 916, 2, -1.0
*EQUATION
2
424, 3, 1.0, 916, 3, -1.0
*EQUATION
2
425, 1, 1.0, 884, 1, -1.0
*EQUATION
2
425, 2, 1.0, 884, 2, -1.0
*EQUATION
2
425, 3, 1.0, 884, 3, -1.0
*EQUATION
2
426, 1, 1.0, 857, 1, -1.0
*EQUATION
2
426, 2, 1.0, 857, 2, -1.0
*EQUATION
2
426, 3, 1.0, 857, 3, -1.0
*EQUATION
2
427, 1, 1.0, 868, 1, -1.0
*EQUATION
2
427, 2, 1.0, 868, 2, -1.0
*EQUATION
2
427, 3, 1.0, 868, 3, -1.0
*EQUATION
2
428, 1, 1.0, 922, 1, -1.0
*EQUATION
2
428, 2, 1.0, 922, 2, -1.0
*EQUATION
2
428, 3, 1.0, 922, 3, -1.0
*EQUATION
2
429, 1, 1.0, 887, 1, -1.0
*EQUATION
2
429, 2, 1.0, 887, 2, -1.0
*EQUATION
2
429, 3, 1.0, 887, 3, -1.0
*EQUATION
2
430, 1, 1.0, 898, 1, -1.0
*EQUATION
2
430, 2, 1.0, 898, 2, -1.0
*EQUATION
2
430, 3, 1.0, 898, 3, -1.0
*EQUATION
2
431, 1, 1.0, 1069, 1, -1.0
*EQUATION
2
431, 2, 1.0, 1069, 2, -1.0
*EQUATION
2
431, 3, 1.0, 1069, 3, -1.0
*EQUATION
2
433, 1, 1.0, 501, 1, -1.0
*EQUATION
2
433, 2, 1.0, 501, 2, -1.0
*EQUATION
2
433, 3, 1.0, 501, 3, -1.0
*EQUATION
2
434, 1, 1.0, 500, 1, -1.0
*EQUATION
2
434, 2, 1.0, 500, 2, -1.0
*EQUATION
2
434, 3, 1.0, 500, 3, -1.0
*EQUATION
2
435, 1, 1.0, 553, 1, -1.0
*EQUATION
2
435, 2, 1.0, 553, 2, -1.0
*EQUATION
2
435, 3, 1.0, 553, 3, -1.0
*EQUATION
2
436, 1, 1.0, 616, 1, -1.0
*EQUATION
2
436, 2, 1.0, 616, 2, -1.0
*EQUATION
2
436, 3, 1.0, 616, 3, -1.0
*EQUATION
2
437, 1, 1.0, 617, 1, -1.0
*EQUATION
2
437, 2, 1.0, 617, 2, -1.0
*EQUATION
2
437, 3, 1.0, 617, 3, -1.0
*EQUATION
2
438, 1, 1.0, 584, 1, -1.0
*EQUATION
2
438, 2, 1.0, 584, 2, -1.0
*EQUATION
2
438, 3, 1.0, 584, 3, -1.0
*EQUATION
2
439, 1, 1.0, 583, 1, -1.0
*EQUATION
2
439, 2, 1.0, 583, 2, -1.0
*EQUATION
2
439, 3, 1.0, 583, 3, -1.0
*EQUATION
2
440, 1, 1.0, 1064, 1, -1.0
*EQUATION
2
440, 2, 1.0, 1064, 2, -1.0
*EQUATION
2
440, 3, 1.0, 1064, 3, -1.0
*EQUATION
2
441, 1, 1.0, 799, 1, -1.0
*EQUATION
2
441, 2, 1.0, 799, 2, -1.0
*EQUATION
2
441, 3, 1.0, 799, 3, -1.0
*EQUATION
2
442, 1, 1.0, 1041, 1, -1.0
*EQUATION
2
442, 2, 1.0, 1041, 2, -1.0
*EQUATION
2
442, 3, 1.0, 1041, 3, -1.0
*EQUATION
2
443, 1, 1.0, 1030, 1, -1.0
*EQUATION
2
443, 2, 1.0, 1030, 2, -1.0
*EQUATION
2
443, 3, 1.0, 1030, 3, -1.0
*EQUATION
2
444, 1, 1.0, 645, 1, -1.0
*EQUATION
2
444, 2, 1.0, 645, 2, -1.0
*EQUATION
2
444, 3, 1.0, 645, 3, -1.0
*EQUATION
2
445, 1, 1.0, 490, 1, -1.0
*EQUATION
2
445, 2, 1.0, 490, 2, -1.0
*EQUATION
2
445, 3, 1.0, 490, 3, -1.0
*EQUATION
2
446, 1, 1.0, 705, 1, -1.0
*EQUATION
2
446, 2, 1.0, 705, 2, -1.0
*EQUATION
2
446, 3, 1.0, 705, 3, -1.0
*EQUATION
2
447, 1, 1.0, 773, 1, -1.0
*EQUATION
2
447, 2, 1.0, 773, 2, -1.0
*EQUATION
2
447, 3, 1.0, 773, 3, -1.0
*EQUATION
2
448, 1, 1.0, 913, 1, -1.0
*EQUATION
2
448, 2, 1.0, 913, 2, -1.0
*EQUATION
2
448, 3, 1.0, 913, 3, -1.0
*EQUATION
2
449, 1, 1.0, 1065, 1, -1.0
*EQUATION
2
449, 2, 1.0, 1065, 2, -1.0
*EQUATION
2
449, 3, 1.0, 1065, 3, -1.0
*EQUATION
2
450, 1, 1.0, 626, 1, -1.0
*EQUATION
2
450, 2, 1.0, 626, 2, -1.0
*EQUATION
2
450, 3, 1.0, 626, 3, -1.0
*EQUATION
2
451, 1, 1.0, 797, 1, -1.0
*EQUATION
2
451, 2, 1.0, 797, 2, -1.0
*EQUATION
2
451, 3, 1.0, 797, 3, -1.0
*EQUATION
2
452, 1, 1.0, 470, 1, -1.0
*EQUATION
2
452, 2, 1.0, 470, 2, -1.0
*EQUATION
2
452, 3, 1.0, 470, 3, -1.0
*EQUATION
2
453, 1, 1.0, 702, 1, -1.0
*EQUATION
2
453, 2, 1.0, 702, 2, -1.0
*EQUATION
2
453, 3, 1.0, 702, 3, -1.0
*EQUATION
2
454, 1, 1.0, 480, 1, -1.0
*EQUATION
2
454, 2, 1.0, 480, 2, -1.0
*EQUATION
2
454, 3, 1.0, 480, 3, -1.0
*EQUATION
2
455, 1, 1.0, 588, 1, -1.0
*EQUATION
2
455, 2, 1.0, 588, 2, -1.0
*EQUATION
2
455, 3, 1.0, 588, 3, -1.0
*EQUATION
2
456, 1, 1.0, 183, 1, -1.0
*EQUATION
2
456, 2, 1.0, 183, 2, -1.0
*EQUATION
2
456, 3, 1.0, 183, 3, -1.0
*EQUATION
2
457, 1, 1.0, 185, 1, -1.0
*EQUATION
2
457, 2, 1.0, 185, 2, -1.0
*EQUATION
2
457, 3, 1.0, 185, 3, -1.0
*EQUATION
2
458, 1, 1.0, 107, 1, -1.0
*EQUATION
2
458, 2, 1.0, 107, 2, -1.0
*EQUATION
2
458, 3, 1.0, 107, 3, -1.0
*EQUATION
2
459, 1, 1.0, 105, 1, -1.0
*EQUATION
2
459, 2, 1.0, 105, 2, -1.0
*EQUATION
2
459, 3, 1.0, 105, 3, -1.0
*EQUATION
2
460, 1, 1.0, 108, 1, -1.0
*EQUATION
2
460, 2, 1.0, 108, 2, -1.0
*EQUATION
2
460, 3, 1.0, 108, 3, -1.0
**
** ═══════════════════════════════════════════
** BOUNDARY CONDITIONS AND LOADS
** ═══════════════════════════════════════════
**

*NSET, NSET=NSET_ALL_NODES, GENERATE
1, 1250, 1
*ELSET, ELSET=EALL_ELEMS, GENERATE
1, 9999999, 1
*STEP
*STATIC
1., 1.
**
*BOUNDARY
NSET_ROOT, 1, 6
**
*CLOAD
105, 3, -1000.0
**
*NODE FILE
U
*EL FILE
S
**
*NODE PRINT, NSET=NALL
U
*EL PRINT, ELSET=WingSkin
S
**
*NODE PRINT, NSET=NSET_ALL_NODES
U
*EL PRINT, ELSET=EALL_ELEMS
S
*END STEP
